
WIDTH = 8;
DEPTH = 19200;

ADDRESS_RADIX = HEX;
DATA_RADIX = HEX;

CONTENT
BEGIN
  0 : D9;
  1 : D9;
  2 : D9;
  3 : D9;
  4 : DA;
  5 : DB;
  6 : DC;
  7 : DD;
  8 : DE;
  9 : DF;
  A : E1;
  B : E0;
  C : DE;
  D : DC;
  E : DC;
  F : DC;
  10 : DC;
  11 : DC;
  12 : DC;
  13 : DC;
  14 : DC;
  15 : DC;
  16 : DC;
  17 : DC;
  18 : DC;
  19 : DC;
  1A : DC;
  1B : DC;
  1C : DC;
  1D : DC;
  1E : DB;
  1F : DC;
  20 : DD;
  21 : DD;
  22 : DD;
  23 : DD;
  24 : DD;
  25 : DD;
  26 : DD;
  27 : DD;
  28 : DD;
  29 : DD;
  2A : DD;
  2B : DD;
  2C : DD;
  2D : DD;
  2E : DD;
  2F : DD;
  30 : DD;
  31 : DD;
  32 : DD;
  33 : DD;
  34 : DD;
  35 : DD;
  36 : DD;
  37 : DD;
  38 : DC;
  39 : DA;
  3A : D9;
  3B : DA;
  3C : DB;
  3D : DA;
  3E : D9;
  3F : D9;
  40 : DA;
  41 : DB;
  42 : DB;
  43 : D9;
  44 : D6;
  45 : D7;
  46 : D7;
  47 : D7;
  48 : D7;
  49 : D7;
  4A : D7;
  4B : D7;
  4C : D7;
  4D : D7;
  4E : D7;
  4F : D8;
  50 : DB;
  51 : DD;
  52 : DD;
  53 : DD;
  54 : DD;
  55 : DC;
  56 : D9;
  57 : D8;
  58 : D9;
  59 : DC;
  5A : DF;
  5B : DD;
  5C : DB;
  5D : DB;
  5E : DA;
  5F : D8;
  60 : D8;
  61 : DA;
  62 : DB;
  63 : DA;
  64 : DA;
  65 : D9;
  66 : D9;
  67 : DB;
  68 : DB;
  69 : DA;
  6A : D9;
  6B : D8;
  6C : D7;
  6D : D6;
  6E : D6;
  6F : D6;
  70 : D5;
  71 : D5;
  72 : D7;
  73 : D9;
  74 : D8;
  75 : D8;
  76 : D8;
  77 : D9;
  78 : DA;
  79 : DA;
  7A : DB;
  7B : DA;
  7C : DA;
  7D : DA;
  7E : D9;
  7F : D8;
  80 : D5;
  81 : D4;
  82 : D4;
  83 : D6;
  84 : D6;
  85 : D6;
  86 : D6;
  87 : D5;
  88 : D5;
  89 : D5;
  8A : D4;
  8B : D2;
  8C : D4;
  8D : D5;
  8E : D4;
  8F : D4;
  90 : D4;
  91 : D4;
  92 : D4;
  93 : D4;
  94 : D3;
  95 : D2;
  96 : D2;
  97 : D2;
  98 : D1;
  99 : D2;
  9A : D0;
  9B : CE;
  9C : CE;
  9D : CF;
  9E : CE;
  9F : B2;
  A0 : D9;
  A1 : DA;
  A2 : D9;
  A3 : D9;
  A4 : DA;
  A5 : DB;
  A6 : DC;
  A7 : DC;
  A8 : DD;
  A9 : DE;
  AA : E0;
  AB : DF;
  AC : DD;
  AD : DD;
  AE : DB;
  AF : DC;
  B0 : DC;
  B1 : DC;
  B2 : DC;
  B3 : DC;
  B4 : DC;
  B5 : DC;
  B6 : DC;
  B7 : DC;
  B8 : DC;
  B9 : DC;
  BA : DC;
  BB : DC;
  BC : DC;
  BD : DC;
  BE : DB;
  BF : DD;
  C0 : DE;
  C1 : DD;
  C2 : DD;
  C3 : DD;
  C4 : DD;
  C5 : DD;
  C6 : DD;
  C7 : DD;
  C8 : DD;
  C9 : DD;
  CA : DD;
  CB : DD;
  CC : DD;
  CD : DD;
  CE : DD;
  CF : DD;
  D0 : DD;
  D1 : DD;
  D2 : DD;
  D3 : DD;
  D4 : DD;
  D5 : DD;
  D6 : DD;
  D7 : DD;
  D8 : DD;
  D9 : DB;
  DA : DB;
  DB : DA;
  DC : DA;
  DD : DA;
  DE : DA;
  DF : DA;
  E0 : DC;
  E1 : DC;
  E2 : DD;
  E3 : DB;
  E4 : D7;
  E5 : D6;
  E6 : D7;
  E7 : D8;
  E8 : D8;
  E9 : D7;
  EA : D7;
  EB : D7;
  EC : D7;
  ED : D7;
  EE : D7;
  EF : D8;
  F0 : D9;
  F1 : D5;
  F2 : D4;
  F3 : D3;
  F4 : D1;
  F5 : CF;
  F6 : CD;
  F7 : CA;
  F8 : C6;
  F9 : C3;
  FA : C2;
  FB : BE;
  FC : BD;
  FD : BE;
  FE : C2;
  FF : C6;
  100 : CA;
  101 : CE;
  102 : D2;
  103 : D8;
  104 : DB;
  105 : DA;
  106 : D8;
  107 : D9;
  108 : D9;
  109 : D9;
  10A : D9;
  10B : D9;
  10C : D9;
  10D : D8;
  10E : D6;
  10F : D5;
  110 : D6;
  111 : D6;
  112 : D7;
  113 : D8;
  114 : D6;
  115 : D6;
  116 : D7;
  117 : D9;
  118 : DB;
  119 : DA;
  11A : DA;
  11B : D9;
  11C : DA;
  11D : D9;
  11E : D8;
  11F : D7;
  120 : D6;
  121 : D6;
  122 : D6;
  123 : D5;
  124 : D6;
  125 : D6;
  126 : D6;
  127 : D6;
  128 : D6;
  129 : D5;
  12A : D4;
  12B : D3;
  12C : D4;
  12D : D5;
  12E : D4;
  12F : D4;
  130 : D4;
  131 : D4;
  132 : D4;
  133 : D4;
  134 : D3;
  135 : D2;
  136 : D3;
  137 : D2;
  138 : D2;
  139 : D1;
  13A : D0;
  13B : CE;
  13C : CE;
  13D : CF;
  13E : CE;
  13F : B2;
  140 : DA;
  141 : DA;
  142 : D9;
  143 : D9;
  144 : DA;
  145 : DB;
  146 : DC;
  147 : DB;
  148 : DB;
  149 : DB;
  14A : DC;
  14B : DC;
  14C : DB;
  14D : DC;
  14E : DC;
  14F : DC;
  150 : DC;
  151 : DC;
  152 : DC;
  153 : DC;
  154 : DC;
  155 : DC;
  156 : DC;
  157 : DC;
  158 : DC;
  159 : DC;
  15A : DC;
  15B : DC;
  15C : DC;
  15D : DC;
  15E : DB;
  15F : DD;
  160 : DE;
  161 : DD;
  162 : DD;
  163 : DD;
  164 : DD;
  165 : DD;
  166 : DD;
  167 : DD;
  168 : DD;
  169 : DD;
  16A : DD;
  16B : DD;
  16C : DD;
  16D : DD;
  16E : DD;
  16F : DD;
  170 : DD;
  171 : DD;
  172 : DC;
  173 : DD;
  174 : DD;
  175 : DD;
  176 : DD;
  177 : DC;
  178 : DC;
  179 : DC;
  17A : DC;
  17B : DC;
  17C : DB;
  17D : DB;
  17E : DC;
  17F : DC;
  180 : DD;
  181 : DD;
  182 : DD;
  183 : DD;
  184 : DB;
  185 : DA;
  186 : DA;
  187 : DB;
  188 : D9;
  189 : D7;
  18A : D7;
  18B : D7;
  18C : D7;
  18D : D6;
  18E : D7;
  18F : D4;
  190 : CB;
  191 : B9;
  192 : AE;
  193 : A6;
  194 : 9A;
  195 : 90;
  196 : 8C;
  197 : 84;
  198 : 75;
  199 : 6F;
  19A : 6B;
  19B : 67;
  19C : 65;
  19D : 65;
  19E : 6A;
  19F : 79;
  1A0 : 87;
  1A1 : 93;
  1A2 : A1;
  1A3 : B5;
  1A4 : C6;
  1A5 : D1;
  1A6 : D4;
  1A7 : D7;
  1A8 : D8;
  1A9 : D8;
  1AA : D9;
  1AB : D8;
  1AC : D8;
  1AD : D9;
  1AE : D7;
  1AF : D6;
  1B0 : D6;
  1B1 : D7;
  1B2 : D7;
  1B3 : D7;
  1B4 : D6;
  1B5 : D6;
  1B6 : D6;
  1B7 : D7;
  1B8 : D9;
  1B9 : D9;
  1BA : D8;
  1BB : D7;
  1BC : D9;
  1BD : D7;
  1BE : D6;
  1BF : D6;
  1C0 : D6;
  1C1 : D6;
  1C2 : D4;
  1C3 : D3;
  1C4 : D4;
  1C5 : D6;
  1C6 : D5;
  1C7 : D5;
  1C8 : D5;
  1C9 : D4;
  1CA : D4;
  1CB : D3;
  1CC : D4;
  1CD : D4;
  1CE : D4;
  1CF : D4;
  1D0 : D4;
  1D1 : D4;
  1D2 : D4;
  1D3 : D4;
  1D4 : D3;
  1D5 : D2;
  1D6 : D3;
  1D7 : D2;
  1D8 : D0;
  1D9 : D0;
  1DA : D0;
  1DB : CF;
  1DC : D0;
  1DD : D0;
  1DE : CF;
  1DF : B3;
  1E0 : D9;
  1E1 : DA;
  1E2 : DA;
  1E3 : DA;
  1E4 : DA;
  1E5 : DC;
  1E6 : DC;
  1E7 : DC;
  1E8 : DB;
  1E9 : D9;
  1EA : D9;
  1EB : D9;
  1EC : DA;
  1ED : DC;
  1EE : DC;
  1EF : DC;
  1F0 : DC;
  1F1 : DC;
  1F2 : DC;
  1F3 : DC;
  1F4 : DC;
  1F5 : DC;
  1F6 : DC;
  1F7 : DC;
  1F8 : DC;
  1F9 : DC;
  1FA : DC;
  1FB : DC;
  1FC : DC;
  1FD : DC;
  1FE : DB;
  1FF : DD;
  200 : DE;
  201 : DD;
  202 : DD;
  203 : DD;
  204 : DD;
  205 : DD;
  206 : DC;
  207 : DD;
  208 : DE;
  209 : DD;
  20A : DD;
  20B : DC;
  20C : DC;
  20D : DC;
  20E : DC;
  20F : DC;
  210 : DC;
  211 : DD;
  212 : DC;
  213 : DD;
  214 : DC;
  215 : DD;
  216 : DD;
  217 : DC;
  218 : DD;
  219 : DD;
  21A : DC;
  21B : DD;
  21C : DC;
  21D : DC;
  21E : DD;
  21F : DD;
  220 : DD;
  221 : DD;
  222 : DD;
  223 : DD;
  224 : DC;
  225 : DC;
  226 : DC;
  227 : DB;
  228 : DA;
  229 : D7;
  22A : D6;
  22B : D6;
  22C : D3;
  22D : CD;
  22E : C2;
  22F : B0;
  230 : 94;
  231 : 77;
  232 : 65;
  233 : 5B;
  234 : 4C;
  235 : 43;
  236 : 3F;
  237 : 39;
  238 : 30;
  239 : 2B;
  23A : 2B;
  23B : 29;
  23C : 27;
  23D : 28;
  23E : 27;
  23F : 2B;
  240 : 31;
  241 : 38;
  242 : 49;
  243 : 61;
  244 : 80;
  245 : A6;
  246 : BB;
  247 : CF;
  248 : D7;
  249 : D9;
  24A : DA;
  24B : D9;
  24C : D7;
  24D : D6;
  24E : D8;
  24F : D8;
  250 : D8;
  251 : D8;
  252 : D7;
  253 : D7;
  254 : D6;
  255 : D5;
  256 : D5;
  257 : D6;
  258 : D8;
  259 : D8;
  25A : D8;
  25B : D7;
  25C : D8;
  25D : D6;
  25E : D5;
  25F : D6;
  260 : D5;
  261 : D5;
  262 : D4;
  263 : D2;
  264 : D4;
  265 : D5;
  266 : D5;
  267 : D5;
  268 : D5;
  269 : D5;
  26A : D4;
  26B : D4;
  26C : D4;
  26D : D5;
  26E : D4;
  26F : D4;
  270 : D4;
  271 : D4;
  272 : D4;
  273 : D4;
  274 : D3;
  275 : D2;
  276 : D3;
  277 : D2;
  278 : D0;
  279 : CF;
  27A : D0;
  27B : CF;
  27C : D0;
  27D : D0;
  27E : CE;
  27F : B3;
  280 : DA;
  281 : DA;
  282 : DA;
  283 : DA;
  284 : DA;
  285 : DB;
  286 : DB;
  287 : DC;
  288 : DB;
  289 : DB;
  28A : DA;
  28B : D9;
  28C : DB;
  28D : DC;
  28E : DC;
  28F : DC;
  290 : DC;
  291 : DC;
  292 : DC;
  293 : DC;
  294 : DC;
  295 : DC;
  296 : DC;
  297 : DC;
  298 : DC;
  299 : DC;
  29A : DC;
  29B : DC;
  29C : DC;
  29D : DB;
  29E : DB;
  29F : DD;
  2A0 : DD;
  2A1 : DD;
  2A2 : DD;
  2A3 : DD;
  2A4 : DD;
  2A5 : DD;
  2A6 : DD;
  2A7 : DD;
  2A8 : DB;
  2A9 : DB;
  2AA : DC;
  2AB : DD;
  2AC : DD;
  2AD : DD;
  2AE : DD;
  2AF : DD;
  2B0 : DD;
  2B1 : DD;
  2B2 : DD;
  2B3 : DD;
  2B4 : DD;
  2B5 : DD;
  2B6 : DD;
  2B7 : DD;
  2B8 : DD;
  2B9 : DD;
  2BA : DD;
  2BB : DD;
  2BC : DD;
  2BD : DD;
  2BE : DD;
  2BF : DD;
  2C0 : DD;
  2C1 : DD;
  2C2 : DD;
  2C3 : DD;
  2C4 : DC;
  2C5 : DC;
  2C6 : DC;
  2C7 : DB;
  2C8 : D9;
  2C9 : D7;
  2CA : D6;
  2CB : D2;
  2CC : C7;
  2CD : AE;
  2CE : 8F;
  2CF : 6B;
  2D0 : 49;
  2D1 : 34;
  2D2 : 2E;
  2D3 : 2D;
  2D4 : 28;
  2D5 : 25;
  2D6 : 21;
  2D7 : 1E;
  2D8 : 1A;
  2D9 : 18;
  2DA : 1A;
  2DB : 19;
  2DC : 19;
  2DD : 19;
  2DE : 19;
  2DF : 18;
  2E0 : 19;
  2E1 : 1C;
  2E2 : 1D;
  2E3 : 21;
  2E4 : 2E;
  2E5 : 4B;
  2E6 : 6B;
  2E7 : 9A;
  2E8 : BF;
  2E9 : D2;
  2EA : D8;
  2EB : D9;
  2EC : D9;
  2ED : D7;
  2EE : D7;
  2EF : D8;
  2F0 : D9;
  2F1 : D9;
  2F2 : D7;
  2F3 : D6;
  2F4 : D6;
  2F5 : D6;
  2F6 : D7;
  2F7 : D8;
  2F8 : D8;
  2F9 : D8;
  2FA : D8;
  2FB : D9;
  2FC : D8;
  2FD : D6;
  2FE : D6;
  2FF : D6;
  300 : D6;
  301 : D5;
  302 : D3;
  303 : D3;
  304 : D4;
  305 : D6;
  306 : D5;
  307 : D5;
  308 : D5;
  309 : D4;
  30A : D5;
  30B : D4;
  30C : D4;
  30D : D5;
  30E : D4;
  30F : D4;
  310 : D4;
  311 : D4;
  312 : D4;
  313 : D4;
  314 : D3;
  315 : D3;
  316 : D3;
  317 : D3;
  318 : D1;
  319 : D0;
  31A : D0;
  31B : CE;
  31C : CF;
  31D : D0;
  31E : CD;
  31F : B2;
  320 : DB;
  321 : DB;
  322 : DA;
  323 : DB;
  324 : DA;
  325 : DA;
  326 : DB;
  327 : DC;
  328 : DC;
  329 : DB;
  32A : DB;
  32B : DA;
  32C : DA;
  32D : DC;
  32E : DC;
  32F : DC;
  330 : DC;
  331 : DC;
  332 : DC;
  333 : DC;
  334 : DC;
  335 : DC;
  336 : DC;
  337 : DC;
  338 : DC;
  339 : DC;
  33A : DC;
  33B : DB;
  33C : DB;
  33D : DB;
  33E : DB;
  33F : DD;
  340 : DE;
  341 : DD;
  342 : DD;
  343 : DD;
  344 : DD;
  345 : DD;
  346 : DD;
  347 : DC;
  348 : DB;
  349 : DB;
  34A : DB;
  34B : DD;
  34C : DD;
  34D : DD;
  34E : DD;
  34F : DC;
  350 : DD;
  351 : DD;
  352 : DD;
  353 : DC;
  354 : DC;
  355 : DC;
  356 : DC;
  357 : DD;
  358 : DC;
  359 : DC;
  35A : DD;
  35B : DC;
  35C : DC;
  35D : DD;
  35E : DD;
  35F : DD;
  360 : DD;
  361 : DD;
  362 : DD;
  363 : DC;
  364 : DB;
  365 : DB;
  366 : DC;
  367 : DA;
  368 : D7;
  369 : D7;
  36A : D4;
  36B : C5;
  36C : AE;
  36D : 88;
  36E : 5C;
  36F : 37;
  370 : 27;
  371 : 22;
  372 : 1F;
  373 : 1C;
  374 : 19;
  375 : 16;
  376 : 15;
  377 : 13;
  378 : 13;
  379 : 14;
  37A : 14;
  37B : 14;
  37C : 14;
  37D : 14;
  37E : 15;
  37F : 14;
  380 : 17;
  381 : 1B;
  382 : 1C;
  383 : 1D;
  384 : 17;
  385 : 16;
  386 : 20;
  387 : 3B;
  388 : 70;
  389 : AA;
  38A : CA;
  38B : D7;
  38C : D9;
  38D : D7;
  38E : D6;
  38F : D7;
  390 : D9;
  391 : D9;
  392 : D6;
  393 : D6;
  394 : D7;
  395 : D9;
  396 : D9;
  397 : D9;
  398 : DA;
  399 : D9;
  39A : D9;
  39B : D9;
  39C : D8;
  39D : D6;
  39E : D6;
  39F : D6;
  3A0 : D5;
  3A1 : D4;
  3A2 : D3;
  3A3 : D3;
  3A4 : D4;
  3A5 : D5;
  3A6 : D4;
  3A7 : D4;
  3A8 : D5;
  3A9 : D4;
  3AA : D5;
  3AB : D4;
  3AC : D3;
  3AD : D4;
  3AE : D4;
  3AF : D4;
  3B0 : D4;
  3B1 : D4;
  3B2 : D4;
  3B3 : D4;
  3B4 : D3;
  3B5 : D3;
  3B6 : D4;
  3B7 : D4;
  3B8 : D2;
  3B9 : D0;
  3BA : D0;
  3BB : CE;
  3BC : CF;
  3BD : D0;
  3BE : CE;
  3BF : B3;
  3C0 : DC;
  3C1 : DC;
  3C2 : DB;
  3C3 : DB;
  3C4 : DB;
  3C5 : DA;
  3C6 : DB;
  3C7 : DC;
  3C8 : DC;
  3C9 : DC;
  3CA : DB;
  3CB : DB;
  3CC : DB;
  3CD : DC;
  3CE : DC;
  3CF : DC;
  3D0 : DC;
  3D1 : DC;
  3D2 : DB;
  3D3 : DB;
  3D4 : DC;
  3D5 : DC;
  3D6 : DC;
  3D7 : DC;
  3D8 : DC;
  3D9 : DA;
  3DA : DA;
  3DB : DA;
  3DC : DB;
  3DD : DC;
  3DE : DD;
  3DF : DD;
  3E0 : DE;
  3E1 : DD;
  3E2 : DD;
  3E3 : DD;
  3E4 : DD;
  3E5 : DC;
  3E6 : DD;
  3E7 : DC;
  3E8 : DC;
  3E9 : DC;
  3EA : DC;
  3EB : DC;
  3EC : DB;
  3ED : DB;
  3EE : DB;
  3EF : DA;
  3F0 : DB;
  3F1 : DA;
  3F2 : DB;
  3F3 : DB;
  3F4 : DB;
  3F5 : DB;
  3F6 : DB;
  3F7 : DA;
  3F8 : DA;
  3F9 : DA;
  3FA : DA;
  3FB : DA;
  3FC : DB;
  3FD : DC;
  3FE : DD;
  3FF : DD;
  400 : DD;
  401 : DD;
  402 : DD;
  403 : DC;
  404 : DB;
  405 : DB;
  406 : DB;
  407 : D8;
  408 : D7;
  409 : D6;
  40A : CB;
  40B : A7;
  40C : 7F;
  40D : 5B;
  40E : 3E;
  40F : 2B;
  410 : 25;
  411 : 23;
  412 : 21;
  413 : 1C;
  414 : 16;
  415 : 16;
  416 : 13;
  417 : 12;
  418 : 12;
  419 : 11;
  41A : 11;
  41B : 11;
  41C : 12;
  41D : 15;
  41E : 15;
  41F : 14;
  420 : 13;
  421 : 15;
  422 : 1A;
  423 : 24;
  424 : 26;
  425 : 20;
  426 : 1D;
  427 : 1D;
  428 : 2B;
  429 : 55;
  42A : 93;
  42B : C0;
  42C : D2;
  42D : D5;
  42E : D4;
  42F : D5;
  430 : D7;
  431 : D9;
  432 : D9;
  433 : D9;
  434 : DA;
  435 : DA;
  436 : DA;
  437 : DA;
  438 : DA;
  439 : D9;
  43A : D9;
  43B : D9;
  43C : D8;
  43D : D6;
  43E : D7;
  43F : D6;
  440 : D5;
  441 : D4;
  442 : D3;
  443 : D3;
  444 : D4;
  445 : D4;
  446 : D4;
  447 : D4;
  448 : D4;
  449 : D4;
  44A : D3;
  44B : D3;
  44C : D4;
  44D : D4;
  44E : D4;
  44F : D4;
  450 : D4;
  451 : D4;
  452 : D4;
  453 : D4;
  454 : D3;
  455 : D3;
  456 : D4;
  457 : D4;
  458 : D1;
  459 : D0;
  45A : D0;
  45B : CF;
  45C : D0;
  45D : D0;
  45E : CE;
  45F : B3;
  460 : DC;
  461 : DC;
  462 : DC;
  463 : DC;
  464 : DB;
  465 : DA;
  466 : DB;
  467 : DC;
  468 : DC;
  469 : DC;
  46A : DC;
  46B : DC;
  46C : DC;
  46D : DC;
  46E : DC;
  46F : DC;
  470 : DC;
  471 : DC;
  472 : DB;
  473 : DB;
  474 : DC;
  475 : DC;
  476 : DC;
  477 : DC;
  478 : DB;
  479 : D8;
  47A : D7;
  47B : D8;
  47C : DA;
  47D : DC;
  47E : DD;
  47F : DD;
  480 : DD;
  481 : DD;
  482 : DD;
  483 : DD;
  484 : DC;
  485 : DC;
  486 : DC;
  487 : DB;
  488 : DB;
  489 : DB;
  48A : DB;
  48B : DB;
  48C : DB;
  48D : DA;
  48E : DB;
  48F : DB;
  490 : DA;
  491 : DA;
  492 : DB;
  493 : DC;
  494 : DB;
  495 : DC;
  496 : DB;
  497 : DA;
  498 : DB;
  499 : DB;
  49A : DA;
  49B : DA;
  49C : DB;
  49D : DB;
  49E : DC;
  49F : DD;
  4A0 : DD;
  4A1 : DD;
  4A2 : DB;
  4A3 : DB;
  4A4 : DB;
  4A5 : DB;
  4A6 : D8;
  4A7 : D7;
  4A8 : D7;
  4A9 : D5;
  4AA : B4;
  4AB : 78;
  4AC : 4A;
  4AD : 3A;
  4AE : 32;
  4AF : 27;
  4B0 : 22;
  4B1 : 26;
  4B2 : 25;
  4B3 : 1E;
  4B4 : 16;
  4B5 : 15;
  4B6 : 15;
  4B7 : 12;
  4B8 : 13;
  4B9 : 14;
  4BA : 14;
  4BB : 14;
  4BC : 15;
  4BD : 16;
  4BE : 16;
  4BF : 19;
  4C0 : 1A;
  4C1 : 1A;
  4C2 : 19;
  4C3 : 1F;
  4C4 : 25;
  4C5 : 27;
  4C6 : 27;
  4C7 : 23;
  4C8 : 20;
  4C9 : 21;
  4CA : 42;
  4CB : 82;
  4CC : BB;
  4CD : D1;
  4CE : D3;
  4CF : D4;
  4D0 : D6;
  4D1 : D9;
  4D2 : DA;
  4D3 : DB;
  4D4 : DB;
  4D5 : DB;
  4D6 : DB;
  4D7 : DA;
  4D8 : DA;
  4D9 : D9;
  4DA : D7;
  4DB : D7;
  4DC : D6;
  4DD : D7;
  4DE : D6;
  4DF : D6;
  4E0 : D4;
  4E1 : D4;
  4E2 : D3;
  4E3 : D3;
  4E4 : D3;
  4E5 : D4;
  4E6 : D5;
  4E7 : D5;
  4E8 : D4;
  4E9 : D3;
  4EA : D3;
  4EB : D3;
  4EC : D4;
  4ED : D4;
  4EE : D4;
  4EF : D4;
  4F0 : D4;
  4F1 : D4;
  4F2 : D4;
  4F3 : D4;
  4F4 : D4;
  4F5 : D3;
  4F6 : D4;
  4F7 : D4;
  4F8 : D2;
  4F9 : D1;
  4FA : D1;
  4FB : D1;
  4FC : D1;
  4FD : D1;
  4FE : CE;
  4FF : B2;
  500 : DC;
  501 : DC;
  502 : DC;
  503 : DC;
  504 : DB;
  505 : DA;
  506 : DB;
  507 : DC;
  508 : DC;
  509 : DC;
  50A : DC;
  50B : DC;
  50C : DC;
  50D : DC;
  50E : DC;
  50F : DC;
  510 : DC;
  511 : DC;
  512 : DC;
  513 : DC;
  514 : DC;
  515 : DC;
  516 : DC;
  517 : DC;
  518 : DB;
  519 : D9;
  51A : D8;
  51B : DA;
  51C : DB;
  51D : DC;
  51E : DC;
  51F : DC;
  520 : DD;
  521 : DD;
  522 : DC;
  523 : DC;
  524 : DC;
  525 : DB;
  526 : DB;
  527 : DA;
  528 : DA;
  529 : DA;
  52A : DA;
  52B : DB;
  52C : DA;
  52D : DA;
  52E : DB;
  52F : DB;
  530 : DA;
  531 : DA;
  532 : DA;
  533 : D9;
  534 : D9;
  535 : D9;
  536 : D9;
  537 : DA;
  538 : DA;
  539 : DA;
  53A : D9;
  53B : D9;
  53C : D9;
  53D : D9;
  53E : DA;
  53F : DB;
  540 : DB;
  541 : DA;
  542 : D8;
  543 : D8;
  544 : DA;
  545 : D9;
  546 : D7;
  547 : D6;
  548 : D0;
  549 : B5;
  54A : 77;
  54B : 42;
  54C : 2D;
  54D : 2E;
  54E : 2A;
  54F : 27;
  550 : 2F;
  551 : 33;
  552 : 25;
  553 : 19;
  554 : 13;
  555 : 14;
  556 : 14;
  557 : 13;
  558 : 14;
  559 : 14;
  55A : 14;
  55B : 15;
  55C : 17;
  55D : 18;
  55E : 18;
  55F : 1C;
  560 : 1E;
  561 : 1D;
  562 : 1A;
  563 : 1B;
  564 : 1F;
  565 : 20;
  566 : 23;
  567 : 22;
  568 : 21;
  569 : 20;
  56A : 20;
  56B : 3E;
  56C : 84;
  56D : BC;
  56E : D0;
  56F : D4;
  570 : D5;
  571 : D8;
  572 : D9;
  573 : DA;
  574 : DA;
  575 : D9;
  576 : D9;
  577 : D9;
  578 : D9;
  579 : D8;
  57A : D6;
  57B : D6;
  57C : D6;
  57D : D6;
  57E : D6;
  57F : D5;
  580 : D5;
  581 : D4;
  582 : D3;
  583 : D2;
  584 : D2;
  585 : D3;
  586 : D4;
  587 : D4;
  588 : D4;
  589 : D4;
  58A : D4;
  58B : D4;
  58C : D4;
  58D : D4;
  58E : D4;
  58F : D4;
  590 : D4;
  591 : D4;
  592 : D4;
  593 : D4;
  594 : D4;
  595 : D4;
  596 : D4;
  597 : D4;
  598 : D3;
  599 : D2;
  59A : D3;
  59B : D2;
  59C : D1;
  59D : D1;
  59E : CE;
  59F : B0;
  5A0 : DC;
  5A1 : DC;
  5A2 : DC;
  5A3 : DB;
  5A4 : DA;
  5A5 : D9;
  5A6 : DA;
  5A7 : DC;
  5A8 : DC;
  5A9 : DC;
  5AA : DC;
  5AB : DC;
  5AC : DC;
  5AD : DC;
  5AE : DC;
  5AF : DC;
  5B0 : DC;
  5B1 : DC;
  5B2 : DC;
  5B3 : DC;
  5B4 : DC;
  5B5 : DC;
  5B6 : DC;
  5B7 : DC;
  5B8 : DC;
  5B9 : DB;
  5BA : DC;
  5BB : DC;
  5BC : DC;
  5BD : DD;
  5BE : DD;
  5BF : DC;
  5C0 : DD;
  5C1 : DC;
  5C2 : DB;
  5C3 : DA;
  5C4 : DB;
  5C5 : DC;
  5C6 : DB;
  5C7 : DB;
  5C8 : DA;
  5C9 : DA;
  5CA : DB;
  5CB : DB;
  5CC : DB;
  5CD : DB;
  5CE : DA;
  5CF : DA;
  5D0 : DA;
  5D1 : DA;
  5D2 : D9;
  5D3 : D8;
  5D4 : D8;
  5D5 : D9;
  5D6 : DA;
  5D7 : D9;
  5D8 : D9;
  5D9 : DA;
  5DA : D9;
  5DB : D9;
  5DC : D9;
  5DD : D9;
  5DE : D9;
  5DF : DA;
  5E0 : D9;
  5E1 : D7;
  5E2 : D7;
  5E3 : D7;
  5E4 : D7;
  5E5 : D5;
  5E6 : D3;
  5E7 : CA;
  5E8 : A4;
  5E9 : 65;
  5EA : 34;
  5EB : 25;
  5EC : 22;
  5ED : 24;
  5EE : 27;
  5EF : 39;
  5F0 : 45;
  5F1 : 30;
  5F2 : 1A;
  5F3 : 13;
  5F4 : 13;
  5F5 : 14;
  5F6 : 15;
  5F7 : 13;
  5F8 : 14;
  5F9 : 14;
  5FA : 14;
  5FB : 15;
  5FC : 16;
  5FD : 17;
  5FE : 17;
  5FF : 1A;
  600 : 1D;
  601 : 1C;
  602 : 1B;
  603 : 1B;
  604 : 1C;
  605 : 1E;
  606 : 20;
  607 : 20;
  608 : 20;
  609 : 23;
  60A : 23;
  60B : 24;
  60C : 41;
  60D : 81;
  60E : BC;
  60F : D0;
  610 : D4;
  611 : D5;
  612 : D6;
  613 : D7;
  614 : D7;
  615 : D6;
  616 : D6;
  617 : D6;
  618 : D7;
  619 : D7;
  61A : D5;
  61B : D6;
  61C : D6;
  61D : D5;
  61E : D5;
  61F : D5;
  620 : D4;
  621 : D4;
  622 : D3;
  623 : D2;
  624 : D2;
  625 : D3;
  626 : D2;
  627 : D2;
  628 : D3;
  629 : D4;
  62A : D4;
  62B : D3;
  62C : D4;
  62D : D4;
  62E : D4;
  62F : D4;
  630 : D4;
  631 : D4;
  632 : D4;
  633 : D4;
  634 : D4;
  635 : D4;
  636 : D4;
  637 : D3;
  638 : D3;
  639 : D3;
  63A : D3;
  63B : D2;
  63C : D0;
  63D : D1;
  63E : CE;
  63F : B0;
  640 : DC;
  641 : DC;
  642 : DC;
  643 : DB;
  644 : D9;
  645 : D9;
  646 : DA;
  647 : DC;
  648 : DC;
  649 : DC;
  64A : DC;
  64B : DC;
  64C : DC;
  64D : DC;
  64E : DC;
  64F : DC;
  650 : DC;
  651 : DC;
  652 : DC;
  653 : DC;
  654 : DC;
  655 : DC;
  656 : DB;
  657 : DC;
  658 : DD;
  659 : DD;
  65A : DD;
  65B : DC;
  65C : DD;
  65D : DD;
  65E : DD;
  65F : DC;
  660 : DC;
  661 : DC;
  662 : DC;
  663 : DB;
  664 : DB;
  665 : DB;
  666 : D9;
  667 : DA;
  668 : DB;
  669 : DC;
  66A : DB;
  66B : DA;
  66C : DA;
  66D : DA;
  66E : D9;
  66F : D8;
  670 : D7;
  671 : D7;
  672 : D7;
  673 : D9;
  674 : D9;
  675 : D9;
  676 : DA;
  677 : D9;
  678 : D9;
  679 : D9;
  67A : D9;
  67B : D9;
  67C : DA;
  67D : DA;
  67E : D9;
  67F : D8;
  680 : D6;
  681 : D6;
  682 : D6;
  683 : D6;
  684 : D7;
  685 : D8;
  686 : C6;
  687 : 91;
  688 : 4F;
  689 : 25;
  68A : 1D;
  68B : 1D;
  68C : 21;
  68D : 31;
  68E : 45;
  68F : 4C;
  690 : 33;
  691 : 1C;
  692 : 15;
  693 : 15;
  694 : 14;
  695 : 14;
  696 : 15;
  697 : 14;
  698 : 14;
  699 : 15;
  69A : 16;
  69B : 16;
  69C : 15;
  69D : 15;
  69E : 17;
  69F : 1A;
  6A0 : 1D;
  6A1 : 1B;
  6A2 : 1B;
  6A3 : 1B;
  6A4 : 1C;
  6A5 : 1D;
  6A6 : 1D;
  6A7 : 1F;
  6A8 : 1F;
  6A9 : 21;
  6AA : 21;
  6AB : 20;
  6AC : 20;
  6AD : 3A;
  6AE : 7F;
  6AF : BC;
  6B0 : D1;
  6B1 : D4;
  6B2 : D4;
  6B3 : D5;
  6B4 : D5;
  6B5 : D5;
  6B6 : D5;
  6B7 : D6;
  6B8 : D5;
  6B9 : D6;
  6BA : D6;
  6BB : D6;
  6BC : D6;
  6BD : D5;
  6BE : D4;
  6BF : D5;
  6C0 : D5;
  6C1 : D5;
  6C2 : D4;
  6C3 : D4;
  6C4 : D3;
  6C5 : D3;
  6C6 : D2;
  6C7 : D3;
  6C8 : D3;
  6C9 : D3;
  6CA : D3;
  6CB : D3;
  6CC : D4;
  6CD : D4;
  6CE : D4;
  6CF : D4;
  6D0 : D4;
  6D1 : D4;
  6D2 : D4;
  6D3 : D3;
  6D4 : D3;
  6D5 : D3;
  6D6 : D3;
  6D7 : D3;
  6D8 : D2;
  6D9 : D3;
  6DA : D2;
  6DB : D0;
  6DC : CE;
  6DD : D0;
  6DE : CF;
  6DF : B2;
  6E0 : DC;
  6E1 : DC;
  6E2 : DC;
  6E3 : DB;
  6E4 : D9;
  6E5 : D9;
  6E6 : DB;
  6E7 : DC;
  6E8 : DC;
  6E9 : DC;
  6EA : DC;
  6EB : DC;
  6EC : DC;
  6ED : DC;
  6EE : DC;
  6EF : DC;
  6F0 : DC;
  6F1 : DC;
  6F2 : DC;
  6F3 : DC;
  6F4 : DC;
  6F5 : DB;
  6F6 : DC;
  6F7 : DC;
  6F8 : DD;
  6F9 : DD;
  6FA : DD;
  6FB : DD;
  6FC : DD;
  6FD : DD;
  6FE : DD;
  6FF : DC;
  700 : DC;
  701 : DC;
  702 : DB;
  703 : D9;
  704 : D8;
  705 : D7;
  706 : D7;
  707 : D9;
  708 : DB;
  709 : DC;
  70A : DB;
  70B : DA;
  70C : DA;
  70D : DA;
  70E : D9;
  70F : D8;
  710 : D6;
  711 : D5;
  712 : D7;
  713 : D7;
  714 : D6;
  715 : D6;
  716 : D6;
  717 : D6;
  718 : D7;
  719 : D8;
  71A : D8;
  71B : D8;
  71C : DA;
  71D : DB;
  71E : DA;
  71F : D6;
  720 : D4;
  721 : D4;
  722 : D4;
  723 : D4;
  724 : D4;
  725 : C2;
  726 : 8E;
  727 : 4B;
  728 : 28;
  729 : 1E;
  72A : 1C;
  72B : 21;
  72C : 32;
  72D : 49;
  72E : 55;
  72F : 3E;
  730 : 1E;
  731 : 16;
  732 : 15;
  733 : 13;
  734 : 14;
  735 : 14;
  736 : 15;
  737 : 15;
  738 : 15;
  739 : 16;
  73A : 16;
  73B : 16;
  73C : 12;
  73D : 15;
  73E : 18;
  73F : 1A;
  740 : 1E;
  741 : 1D;
  742 : 1C;
  743 : 1C;
  744 : 1D;
  745 : 1D;
  746 : 1D;
  747 : 1F;
  748 : 20;
  749 : 20;
  74A : 1F;
  74B : 1F;
  74C : 1E;
  74D : 1D;
  74E : 38;
  74F : 80;
  750 : C1;
  751 : D5;
  752 : D5;
  753 : D5;
  754 : D4;
  755 : D5;
  756 : D6;
  757 : D6;
  758 : D6;
  759 : D6;
  75A : D6;
  75B : D6;
  75C : D5;
  75D : D4;
  75E : D3;
  75F : D4;
  760 : D5;
  761 : D5;
  762 : D5;
  763 : D4;
  764 : D4;
  765 : D4;
  766 : D4;
  767 : D4;
  768 : D4;
  769 : D3;
  76A : D3;
  76B : D3;
  76C : D3;
  76D : D4;
  76E : D4;
  76F : D4;
  770 : D4;
  771 : D4;
  772 : D4;
  773 : D3;
  774 : D3;
  775 : D3;
  776 : D3;
  777 : D2;
  778 : D2;
  779 : D3;
  77A : D2;
  77B : CF;
  77C : CE;
  77D : D0;
  77E : CF;
  77F : B2;
  780 : DC;
  781 : DB;
  782 : DB;
  783 : DA;
  784 : D9;
  785 : D9;
  786 : DB;
  787 : DC;
  788 : DC;
  789 : DC;
  78A : DC;
  78B : DC;
  78C : DC;
  78D : DC;
  78E : DC;
  78F : DC;
  790 : DC;
  791 : DC;
  792 : DC;
  793 : DC;
  794 : DC;
  795 : DC;
  796 : DC;
  797 : DC;
  798 : DD;
  799 : DD;
  79A : DD;
  79B : DD;
  79C : DD;
  79D : DD;
  79E : DC;
  79F : DC;
  7A0 : DC;
  7A1 : DB;
  7A2 : D9;
  7A3 : D9;
  7A4 : D8;
  7A5 : D6;
  7A6 : D8;
  7A7 : D8;
  7A8 : DA;
  7A9 : DC;
  7AA : DC;
  7AB : DA;
  7AC : DA;
  7AD : DA;
  7AE : DA;
  7AF : D8;
  7B0 : D8;
  7B1 : D7;
  7B2 : D7;
  7B3 : D7;
  7B4 : D6;
  7B5 : D6;
  7B6 : D6;
  7B7 : D5;
  7B8 : D6;
  7B9 : D7;
  7BA : D8;
  7BB : D8;
  7BC : D9;
  7BD : DA;
  7BE : DA;
  7BF : D6;
  7C0 : D4;
  7C1 : D4;
  7C2 : D3;
  7C3 : D1;
  7C4 : BE;
  7C5 : 87;
  7C6 : 46;
  7C7 : 28;
  7C8 : 1F;
  7C9 : 1C;
  7CA : 1C;
  7CB : 37;
  7CC : 58;
  7CD : 51;
  7CE : 38;
  7CF : 26;
  7D0 : 19;
  7D1 : 15;
  7D2 : 13;
  7D3 : 14;
  7D4 : 14;
  7D5 : 14;
  7D6 : 15;
  7D7 : 14;
  7D8 : 14;
  7D9 : 14;
  7DA : 16;
  7DB : 16;
  7DC : 13;
  7DD : 17;
  7DE : 1A;
  7DF : 1C;
  7E0 : 1F;
  7E1 : 1F;
  7E2 : 1F;
  7E3 : 1D;
  7E4 : 1B;
  7E5 : 1B;
  7E6 : 1D;
  7E7 : 1E;
  7E8 : 20;
  7E9 : 20;
  7EA : 21;
  7EB : 21;
  7EC : 20;
  7ED : 20;
  7EE : 1C;
  7EF : 3B;
  7F0 : 92;
  7F1 : D0;
  7F2 : D7;
  7F3 : D4;
  7F4 : D4;
  7F5 : D5;
  7F6 : D5;
  7F7 : D5;
  7F8 : D6;
  7F9 : D6;
  7FA : D6;
  7FB : D6;
  7FC : D5;
  7FD : D3;
  7FE : D3;
  7FF : D3;
  800 : D4;
  801 : D5;
  802 : D5;
  803 : D4;
  804 : D3;
  805 : D4;
  806 : D4;
  807 : D4;
  808 : D4;
  809 : D4;
  80A : D3;
  80B : D3;
  80C : D3;
  80D : D4;
  80E : D4;
  80F : D4;
  810 : D4;
  811 : D4;
  812 : D4;
  813 : D3;
  814 : D3;
  815 : D3;
  816 : D3;
  817 : D3;
  818 : D2;
  819 : D1;
  81A : D1;
  81B : CF;
  81C : CF;
  81D : D1;
  81E : CF;
  81F : B2;
  820 : DB;
  821 : DB;
  822 : DA;
  823 : D9;
  824 : DA;
  825 : D9;
  826 : DB;
  827 : DC;
  828 : DC;
  829 : DC;
  82A : DC;
  82B : DC;
  82C : DC;
  82D : DC;
  82E : DC;
  82F : DC;
  830 : DC;
  831 : DC;
  832 : DC;
  833 : DC;
  834 : DC;
  835 : DC;
  836 : DC;
  837 : DC;
  838 : DD;
  839 : DD;
  83A : DD;
  83B : DD;
  83C : DD;
  83D : DD;
  83E : DB;
  83F : DB;
  840 : DB;
  841 : DA;
  842 : D9;
  843 : D8;
  844 : D6;
  845 : D8;
  846 : D9;
  847 : D8;
  848 : DA;
  849 : DB;
  84A : DC;
  84B : DA;
  84C : DA;
  84D : DA;
  84E : DA;
  84F : DA;
  850 : D9;
  851 : D9;
  852 : D8;
  853 : D8;
  854 : D8;
  855 : D8;
  856 : D8;
  857 : D8;
  858 : D7;
  859 : D6;
  85A : D5;
  85B : D8;
  85C : D9;
  85D : D9;
  85E : D8;
  85F : D6;
  860 : D5;
  861 : D4;
  862 : D3;
  863 : C5;
  864 : 8A;
  865 : 48;
  866 : 24;
  867 : 1E;
  868 : 1E;
  869 : 1D;
  86A : 1F;
  86B : 42;
  86C : 69;
  86D : 51;
  86E : 29;
  86F : 20;
  870 : 19;
  871 : 17;
  872 : 16;
  873 : 15;
  874 : 15;
  875 : 15;
  876 : 14;
  877 : 15;
  878 : 15;
  879 : 14;
  87A : 15;
  87B : 16;
  87C : 16;
  87D : 17;
  87E : 1A;
  87F : 1F;
  880 : 20;
  881 : 21;
  882 : 22;
  883 : 1F;
  884 : 1A;
  885 : 1A;
  886 : 1C;
  887 : 1E;
  888 : 20;
  889 : 22;
  88A : 24;
  88B : 23;
  88C : 21;
  88D : 20;
  88E : 1B;
  88F : 1B;
  890 : 4E;
  891 : A8;
  892 : D1;
  893 : D6;
  894 : D5;
  895 : D4;
  896 : D4;
  897 : D4;
  898 : D6;
  899 : D6;
  89A : D6;
  89B : D6;
  89C : D6;
  89D : D4;
  89E : D3;
  89F : D3;
  8A0 : D4;
  8A1 : D5;
  8A2 : D4;
  8A3 : D3;
  8A4 : D3;
  8A5 : D4;
  8A6 : D4;
  8A7 : D4;
  8A8 : D4;
  8A9 : D4;
  8AA : D4;
  8AB : D4;
  8AC : D4;
  8AD : D4;
  8AE : D4;
  8AF : D4;
  8B0 : D4;
  8B1 : D4;
  8B2 : D4;
  8B3 : D3;
  8B4 : D2;
  8B5 : D3;
  8B6 : D3;
  8B7 : D2;
  8B8 : D1;
  8B9 : D2;
  8BA : D1;
  8BB : D0;
  8BC : D0;
  8BD : D0;
  8BE : CF;
  8BF : B2;
  8C0 : D9;
  8C1 : D9;
  8C2 : DA;
  8C3 : D9;
  8C4 : D9;
  8C5 : D9;
  8C6 : DA;
  8C7 : DC;
  8C8 : DC;
  8C9 : DC;
  8CA : DC;
  8CB : DC;
  8CC : DC;
  8CD : DC;
  8CE : DC;
  8CF : DC;
  8D0 : DC;
  8D1 : DC;
  8D2 : DC;
  8D3 : DC;
  8D4 : DC;
  8D5 : DC;
  8D6 : DC;
  8D7 : DC;
  8D8 : DE;
  8D9 : DD;
  8DA : DD;
  8DB : DD;
  8DC : DD;
  8DD : DC;
  8DE : DB;
  8DF : DA;
  8E0 : DA;
  8E1 : D9;
  8E2 : D8;
  8E3 : D7;
  8E4 : D7;
  8E5 : D8;
  8E6 : DA;
  8E7 : D9;
  8E8 : D9;
  8E9 : DA;
  8EA : DA;
  8EB : DB;
  8EC : DA;
  8ED : DA;
  8EE : DA;
  8EF : DA;
  8F0 : D9;
  8F1 : DA;
  8F2 : D9;
  8F3 : D8;
  8F4 : D8;
  8F5 : D7;
  8F6 : D7;
  8F7 : D7;
  8F8 : D7;
  8F9 : D5;
  8FA : D6;
  8FB : D7;
  8FC : D9;
  8FD : D9;
  8FE : D6;
  8FF : D6;
  900 : D5;
  901 : D4;
  902 : CA;
  903 : 99;
  904 : 4A;
  905 : 24;
  906 : 1F;
  907 : 1E;
  908 : 1E;
  909 : 25;
  90A : 2B;
  90B : 47;
  90C : 6E;
  90D : 5C;
  90E : 35;
  90F : 2A;
  910 : 24;
  911 : 1F;
  912 : 1C;
  913 : 19;
  914 : 17;
  915 : 17;
  916 : 17;
  917 : 16;
  918 : 17;
  919 : 17;
  91A : 16;
  91B : 15;
  91C : 16;
  91D : 16;
  91E : 17;
  91F : 1C;
  920 : 21;
  921 : 22;
  922 : 24;
  923 : 23;
  924 : 1F;
  925 : 1D;
  926 : 1E;
  927 : 20;
  928 : 23;
  929 : 24;
  92A : 24;
  92B : 25;
  92C : 24;
  92D : 22;
  92E : 1D;
  92F : 19;
  930 : 23;
  931 : 62;
  932 : B4;
  933 : D3;
  934 : D3;
  935 : D4;
  936 : D4;
  937 : D4;
  938 : D5;
  939 : D5;
  93A : D4;
  93B : D6;
  93C : D5;
  93D : D3;
  93E : D3;
  93F : D3;
  940 : D4;
  941 : D3;
  942 : D3;
  943 : D3;
  944 : D3;
  945 : D3;
  946 : D3;
  947 : D4;
  948 : D4;
  949 : D4;
  94A : D4;
  94B : D4;
  94C : D4;
  94D : D4;
  94E : D4;
  94F : D4;
  950 : D4;
  951 : D4;
  952 : D4;
  953 : D3;
  954 : D2;
  955 : D3;
  956 : D2;
  957 : D2;
  958 : D1;
  959 : D1;
  95A : D0;
  95B : CF;
  95C : CF;
  95D : D0;
  95E : CE;
  95F : B2;
  960 : DA;
  961 : DA;
  962 : DA;
  963 : DA;
  964 : DA;
  965 : DB;
  966 : DB;
  967 : DC;
  968 : DC;
  969 : DC;
  96A : DC;
  96B : DC;
  96C : DC;
  96D : DC;
  96E : DC;
  96F : DC;
  970 : DC;
  971 : DC;
  972 : DC;
  973 : DC;
  974 : DC;
  975 : DC;
  976 : DB;
  977 : DB;
  978 : DC;
  979 : DD;
  97A : DD;
  97B : DC;
  97C : DB;
  97D : DB;
  97E : DB;
  97F : DA;
  980 : DA;
  981 : DA;
  982 : D8;
  983 : D8;
  984 : D9;
  985 : D9;
  986 : DA;
  987 : DA;
  988 : D9;
  989 : D9;
  98A : D8;
  98B : D9;
  98C : DA;
  98D : DA;
  98E : DA;
  98F : DA;
  990 : D9;
  991 : DA;
  992 : D9;
  993 : D7;
  994 : D7;
  995 : D6;
  996 : D6;
  997 : D6;
  998 : D6;
  999 : D5;
  99A : D5;
  99B : D7;
  99C : D9;
  99D : D8;
  99E : D4;
  99F : D5;
  9A0 : D4;
  9A1 : D1;
  9A2 : B1;
  9A3 : 61;
  9A4 : 27;
  9A5 : 1D;
  9A6 : 1D;
  9A7 : 1D;
  9A8 : 1F;
  9A9 : 30;
  9AA : 42;
  9AB : 5B;
  9AC : 72;
  9AD : 66;
  9AE : 4A;
  9AF : 3A;
  9B0 : 2C;
  9B1 : 22;
  9B2 : 20;
  9B3 : 1D;
  9B4 : 1A;
  9B5 : 1B;
  9B6 : 1B;
  9B7 : 18;
  9B8 : 18;
  9B9 : 19;
  9BA : 17;
  9BB : 16;
  9BC : 15;
  9BD : 16;
  9BE : 16;
  9BF : 1A;
  9C0 : 1F;
  9C1 : 21;
  9C2 : 25;
  9C3 : 25;
  9C4 : 22;
  9C5 : 20;
  9C6 : 1F;
  9C7 : 23;
  9C8 : 25;
  9C9 : 26;
  9CA : 26;
  9CB : 25;
  9CC : 25;
  9CD : 26;
  9CE : 1F;
  9CF : 18;
  9D0 : 17;
  9D1 : 30;
  9D2 : 81;
  9D3 : C5;
  9D4 : D3;
  9D5 : D4;
  9D6 : D2;
  9D7 : D3;
  9D8 : D4;
  9D9 : D4;
  9DA : D3;
  9DB : D4;
  9DC : D4;
  9DD : D3;
  9DE : D3;
  9DF : D4;
  9E0 : D4;
  9E1 : D3;
  9E2 : D2;
  9E3 : D3;
  9E4 : D3;
  9E5 : D3;
  9E6 : D3;
  9E7 : D3;
  9E8 : D4;
  9E9 : D4;
  9EA : D4;
  9EB : D4;
  9EC : D4;
  9ED : D4;
  9EE : D4;
  9EF : D4;
  9F0 : D4;
  9F1 : D4;
  9F2 : D4;
  9F3 : D3;
  9F4 : D4;
  9F5 : D3;
  9F6 : D1;
  9F7 : D0;
  9F8 : D0;
  9F9 : D0;
  9FA : CF;
  9FB : CE;
  9FC : CD;
  9FD : D0;
  9FE : CF;
  9FF : B1;
  A00 : DA;
  A01 : D9;
  A02 : D9;
  A03 : DA;
  A04 : DA;
  A05 : DB;
  A06 : DC;
  A07 : DD;
  A08 : DC;
  A09 : DC;
  A0A : DC;
  A0B : DC;
  A0C : DC;
  A0D : DC;
  A0E : DC;
  A0F : DC;
  A10 : DC;
  A11 : DC;
  A12 : DC;
  A13 : DC;
  A14 : DC;
  A15 : DC;
  A16 : DB;
  A17 : DB;
  A18 : DC;
  A19 : DD;
  A1A : DD;
  A1B : DD;
  A1C : DB;
  A1D : DA;
  A1E : DB;
  A1F : DA;
  A20 : DB;
  A21 : DA;
  A22 : D8;
  A23 : D8;
  A24 : D9;
  A25 : DA;
  A26 : DA;
  A27 : D9;
  A28 : D9;
  A29 : D8;
  A2A : D7;
  A2B : D8;
  A2C : DA;
  A2D : DB;
  A2E : DB;
  A2F : DB;
  A30 : DA;
  A31 : D8;
  A32 : D7;
  A33 : D6;
  A34 : D5;
  A35 : D4;
  A36 : D4;
  A37 : D5;
  A38 : D5;
  A39 : D4;
  A3A : D4;
  A3B : D6;
  A3C : D8;
  A3D : D7;
  A3E : D5;
  A3F : D5;
  A40 : D2;
  A41 : C1;
  A42 : 7C;
  A43 : 2F;
  A44 : 1B;
  A45 : 1A;
  A46 : 1A;
  A47 : 1C;
  A48 : 23;
  A49 : 41;
  A4A : 62;
  A4B : 72;
  A4C : 79;
  A4D : 75;
  A4E : 69;
  A4F : 55;
  A50 : 3C;
  A51 : 28;
  A52 : 21;
  A53 : 1E;
  A54 : 1C;
  A55 : 1C;
  A56 : 1D;
  A57 : 1C;
  A58 : 1B;
  A59 : 1B;
  A5A : 19;
  A5B : 16;
  A5C : 16;
  A5D : 15;
  A5E : 16;
  A5F : 19;
  A60 : 1D;
  A61 : 20;
  A62 : 25;
  A63 : 25;
  A64 : 24;
  A65 : 22;
  A66 : 21;
  A67 : 24;
  A68 : 27;
  A69 : 28;
  A6A : 26;
  A6B : 25;
  A6C : 26;
  A6D : 26;
  A6E : 22;
  A6F : 1A;
  A70 : 18;
  A71 : 1E;
  A72 : 4A;
  A73 : A3;
  A74 : CF;
  A75 : D3;
  A76 : D2;
  A77 : D3;
  A78 : D4;
  A79 : D4;
  A7A : D3;
  A7B : D4;
  A7C : D4;
  A7D : D4;
  A7E : D4;
  A7F : D4;
  A80 : D4;
  A81 : D5;
  A82 : D3;
  A83 : D4;
  A84 : D4;
  A85 : D4;
  A86 : D4;
  A87 : D4;
  A88 : D3;
  A89 : D4;
  A8A : D4;
  A8B : D4;
  A8C : D4;
  A8D : D4;
  A8E : D4;
  A8F : D4;
  A90 : D4;
  A91 : D4;
  A92 : D3;
  A93 : D4;
  A94 : D4;
  A95 : D3;
  A96 : D1;
  A97 : D0;
  A98 : D0;
  A99 : D1;
  A9A : CF;
  A9B : CE;
  A9C : CD;
  A9D : CF;
  A9E : CE;
  A9F : B1;
  AA0 : DA;
  AA1 : DA;
  AA2 : DA;
  AA3 : DA;
  AA4 : D9;
  AA5 : DA;
  AA6 : DA;
  AA7 : DB;
  AA8 : DB;
  AA9 : DC;
  AAA : DC;
  AAB : DC;
  AAC : DC;
  AAD : DC;
  AAE : DC;
  AAF : DC;
  AB0 : DC;
  AB1 : DC;
  AB2 : DC;
  AB3 : DC;
  AB4 : DC;
  AB5 : DC;
  AB6 : DB;
  AB7 : DA;
  AB8 : DC;
  AB9 : DD;
  ABA : DD;
  ABB : DD;
  ABC : DC;
  ABD : DB;
  ABE : DB;
  ABF : DB;
  AC0 : DB;
  AC1 : DA;
  AC2 : D9;
  AC3 : D8;
  AC4 : D9;
  AC5 : DA;
  AC6 : DA;
  AC7 : D9;
  AC8 : D8;
  AC9 : D8;
  ACA : D8;
  ACB : D8;
  ACC : D9;
  ACD : DB;
  ACE : D9;
  ACF : D9;
  AD0 : D8;
  AD1 : D6;
  AD2 : D4;
  AD3 : D4;
  AD4 : D3;
  AD5 : D2;
  AD6 : D2;
  AD7 : D3;
  AD8 : D2;
  AD9 : D3;
  ADA : D4;
  ADB : D5;
  ADC : D6;
  ADD : D7;
  ADE : D5;
  ADF : D4;
  AE0 : CD;
  AE1 : A3;
  AE2 : 45;
  AE3 : 16;
  AE4 : 16;
  AE5 : 16;
  AE6 : 17;
  AE7 : 1E;
  AE8 : 36;
  AE9 : 59;
  AEA : 73;
  AEB : 7C;
  AEC : 81;
  AED : 82;
  AEE : 80;
  AEF : 71;
  AF0 : 57;
  AF1 : 3D;
  AF2 : 29;
  AF3 : 20;
  AF4 : 20;
  AF5 : 20;
  AF6 : 20;
  AF7 : 20;
  AF8 : 1F;
  AF9 : 1D;
  AFA : 1A;
  AFB : 17;
  AFC : 16;
  AFD : 15;
  AFE : 16;
  AFF : 1A;
  B00 : 1B;
  B01 : 21;
  B02 : 25;
  B03 : 24;
  B04 : 24;
  B05 : 23;
  B06 : 22;
  B07 : 24;
  B08 : 28;
  B09 : 29;
  B0A : 27;
  B0B : 27;
  B0C : 27;
  B0D : 26;
  B0E : 25;
  B0F : 21;
  B10 : 1B;
  B11 : 19;
  B12 : 25;
  B13 : 72;
  B14 : C1;
  B15 : D3;
  B16 : D3;
  B17 : D3;
  B18 : D3;
  B19 : D3;
  B1A : D3;
  B1B : D5;
  B1C : D4;
  B1D : D5;
  B1E : D5;
  B1F : D5;
  B20 : D5;
  B21 : D5;
  B22 : D5;
  B23 : D5;
  B24 : D4;
  B25 : D5;
  B26 : D5;
  B27 : D4;
  B28 : D3;
  B29 : D4;
  B2A : D4;
  B2B : D4;
  B2C : D4;
  B2D : D4;
  B2E : D4;
  B2F : D4;
  B30 : D4;
  B31 : D4;
  B32 : D4;
  B33 : D3;
  B34 : D3;
  B35 : D3;
  B36 : D1;
  B37 : D0;
  B38 : D1;
  B39 : D0;
  B3A : CE;
  B3B : CD;
  B3C : CD;
  B3D : CF;
  B3E : CD;
  B3F : B0;
  B40 : DB;
  B41 : DB;
  B42 : DB;
  B43 : DA;
  B44 : DA;
  B45 : D9;
  B46 : D9;
  B47 : DA;
  B48 : DB;
  B49 : DC;
  B4A : DC;
  B4B : DC;
  B4C : DC;
  B4D : DC;
  B4E : DB;
  B4F : DB;
  B50 : DC;
  B51 : DC;
  B52 : DC;
  B53 : DC;
  B54 : DC;
  B55 : DB;
  B56 : DA;
  B57 : DB;
  B58 : DC;
  B59 : DD;
  B5A : DD;
  B5B : DD;
  B5C : DD;
  B5D : DC;
  B5E : DB;
  B5F : DB;
  B60 : DB;
  B61 : D9;
  B62 : D8;
  B63 : D8;
  B64 : D9;
  B65 : DA;
  B66 : DA;
  B67 : DA;
  B68 : D9;
  B69 : D9;
  B6A : D9;
  B6B : D9;
  B6C : DA;
  B6D : D9;
  B6E : D6;
  B6F : D6;
  B70 : D6;
  B71 : D5;
  B72 : D4;
  B73 : D3;
  B74 : D3;
  B75 : D3;
  B76 : D4;
  B77 : D3;
  B78 : D2;
  B79 : D3;
  B7A : D4;
  B7B : D5;
  B7C : D6;
  B7D : D6;
  B7E : D6;
  B7F : D5;
  B80 : C2;
  B81 : 7B;
  B82 : 28;
  B83 : 14;
  B84 : 12;
  B85 : 12;
  B86 : 18;
  B87 : 30;
  B88 : 57;
  B89 : 72;
  B8A : 7F;
  B8B : 84;
  B8C : 87;
  B8D : 87;
  B8E : 87;
  B8F : 81;
  B90 : 74;
  B91 : 61;
  B92 : 49;
  B93 : 2E;
  B94 : 22;
  B95 : 21;
  B96 : 22;
  B97 : 21;
  B98 : 20;
  B99 : 1F;
  B9A : 1B;
  B9B : 17;
  B9C : 15;
  B9D : 15;
  B9E : 16;
  B9F : 1A;
  BA0 : 1C;
  BA1 : 1F;
  BA2 : 23;
  BA3 : 25;
  BA4 : 25;
  BA5 : 24;
  BA6 : 21;
  BA7 : 21;
  BA8 : 27;
  BA9 : 29;
  BAA : 27;
  BAB : 27;
  BAC : 25;
  BAD : 23;
  BAE : 24;
  BAF : 24;
  BB0 : 1E;
  BB1 : 1B;
  BB2 : 1C;
  BB3 : 47;
  BB4 : A1;
  BB5 : CD;
  BB6 : D2;
  BB7 : D3;
  BB8 : D3;
  BB9 : D4;
  BBA : D4;
  BBB : D6;
  BBC : D5;
  BBD : D5;
  BBE : D6;
  BBF : D4;
  BC0 : D5;
  BC1 : D5;
  BC2 : D5;
  BC3 : D4;
  BC4 : D3;
  BC5 : D3;
  BC6 : D3;
  BC7 : D4;
  BC8 : D4;
  BC9 : D4;
  BCA : D4;
  BCB : D4;
  BCC : D4;
  BCD : D4;
  BCE : D4;
  BCF : D4;
  BD0 : D4;
  BD1 : D4;
  BD2 : D4;
  BD3 : D3;
  BD4 : D3;
  BD5 : D3;
  BD6 : D0;
  BD7 : D0;
  BD8 : D1;
  BD9 : D0;
  BDA : CE;
  BDB : CC;
  BDC : CC;
  BDD : CD;
  BDE : CC;
  BDF : AF;
  BE0 : DA;
  BE1 : DA;
  BE2 : DA;
  BE3 : D9;
  BE4 : DA;
  BE5 : D9;
  BE6 : D9;
  BE7 : DA;
  BE8 : DB;
  BE9 : DB;
  BEA : DC;
  BEB : DB;
  BEC : DB;
  BED : DB;
  BEE : DB;
  BEF : DC;
  BF0 : DC;
  BF1 : DC;
  BF2 : DC;
  BF3 : DB;
  BF4 : DB;
  BF5 : DA;
  BF6 : DB;
  BF7 : DC;
  BF8 : DC;
  BF9 : DC;
  BFA : DC;
  BFB : DC;
  BFC : DC;
  BFD : DB;
  BFE : DB;
  BFF : DA;
  C00 : DA;
  C01 : D9;
  C02 : D8;
  C03 : D8;
  C04 : D9;
  C05 : DA;
  C06 : DA;
  C07 : DA;
  C08 : DA;
  C09 : DA;
  C0A : D9;
  C0B : D9;
  C0C : DA;
  C0D : D7;
  C0E : D6;
  C0F : D6;
  C10 : D5;
  C11 : D5;
  C12 : D5;
  C13 : D3;
  C14 : D3;
  C15 : D4;
  C16 : D4;
  C17 : D3;
  C18 : D2;
  C19 : D3;
  C1A : D3;
  C1B : D4;
  C1C : D5;
  C1D : D6;
  C1E : D7;
  C1F : D4;
  C20 : AE;
  C21 : 4F;
  C22 : 19;
  C23 : 12;
  C24 : 0F;
  C25 : 11;
  C26 : 23;
  C27 : 52;
  C28 : 76;
  C29 : 87;
  C2A : 8D;
  C2B : 8D;
  C2C : 8D;
  C2D : 8B;
  C2E : 89;
  C2F : 87;
  C30 : 86;
  C31 : 81;
  C32 : 75;
  C33 : 57;
  C34 : 33;
  C35 : 21;
  C36 : 20;
  C37 : 1F;
  C38 : 1E;
  C39 : 1E;
  C3A : 1D;
  C3B : 1A;
  C3C : 15;
  C3D : 15;
  C3E : 16;
  C3F : 1B;
  C40 : 1C;
  C41 : 1D;
  C42 : 20;
  C43 : 24;
  C44 : 24;
  C45 : 23;
  C46 : 20;
  C47 : 1F;
  C48 : 25;
  C49 : 28;
  C4A : 26;
  C4B : 26;
  C4C : 25;
  C4D : 22;
  C4E : 22;
  C4F : 24;
  C50 : 1F;
  C51 : 1D;
  C52 : 1A;
  C53 : 2E;
  C54 : 79;
  C55 : C0;
  C56 : D3;
  C57 : D4;
  C58 : D4;
  C59 : D5;
  C5A : D5;
  C5B : D6;
  C5C : D6;
  C5D : D6;
  C5E : D6;
  C5F : D5;
  C60 : D4;
  C61 : D5;
  C62 : D4;
  C63 : D3;
  C64 : D3;
  C65 : D3;
  C66 : D3;
  C67 : D3;
  C68 : D4;
  C69 : D4;
  C6A : D4;
  C6B : D4;
  C6C : D4;
  C6D : D4;
  C6E : D4;
  C6F : D4;
  C70 : D4;
  C71 : D3;
  C72 : D3;
  C73 : D3;
  C74 : D3;
  C75 : D3;
  C76 : D2;
  C77 : D1;
  C78 : D0;
  C79 : CF;
  C7A : CE;
  C7B : CD;
  C7C : CC;
  C7D : CC;
  C7E : CB;
  C7F : AE;
  C80 : D8;
  C81 : D9;
  C82 : D7;
  C83 : D8;
  C84 : D8;
  C85 : D7;
  C86 : D8;
  C87 : D9;
  C88 : DA;
  C89 : DA;
  C8A : DA;
  C8B : DA;
  C8C : DA;
  C8D : DA;
  C8E : DB;
  C8F : DC;
  C90 : DC;
  C91 : DC;
  C92 : DC;
  C93 : DB;
  C94 : DB;
  C95 : DC;
  C96 : DD;
  C97 : DD;
  C98 : DD;
  C99 : DB;
  C9A : DB;
  C9B : DB;
  C9C : DC;
  C9D : DB;
  C9E : D9;
  C9F : D8;
  CA0 : D9;
  CA1 : D9;
  CA2 : D9;
  CA3 : D8;
  CA4 : D9;
  CA5 : D9;
  CA6 : D9;
  CA7 : D9;
  CA8 : D9;
  CA9 : D9;
  CAA : D9;
  CAB : D9;
  CAC : D9;
  CAD : D7;
  CAE : D6;
  CAF : D6;
  CB0 : D5;
  CB1 : D5;
  CB2 : D3;
  CB3 : D3;
  CB4 : D3;
  CB5 : D4;
  CB6 : D4;
  CB7 : D3;
  CB8 : D2;
  CB9 : D3;
  CBA : D3;
  CBB : D4;
  CBC : D5;
  CBD : D6;
  CBE : D5;
  CBF : C7;
  CC0 : 82;
  CC1 : 2E;
  CC2 : 12;
  CC3 : 0F;
  CC4 : 0E;
  CC5 : 1B;
  CC6 : 40;
  CC7 : 6E;
  CC8 : 8B;
  CC9 : 92;
  CCA : 92;
  CCB : 91;
  CCC : 91;
  CCD : 91;
  CCE : 91;
  CCF : 90;
  CD0 : 91;
  CD1 : 90;
  CD2 : 8C;
  CD3 : 81;
  CD4 : 5C;
  CD5 : 2F;
  CD6 : 1E;
  CD7 : 1D;
  CD8 : 1B;
  CD9 : 1E;
  CDA : 22;
  CDB : 20;
  CDC : 1B;
  CDD : 17;
  CDE : 17;
  CDF : 19;
  CE0 : 1A;
  CE1 : 1B;
  CE2 : 1E;
  CE3 : 22;
  CE4 : 23;
  CE5 : 21;
  CE6 : 1F;
  CE7 : 20;
  CE8 : 24;
  CE9 : 27;
  CEA : 26;
  CEB : 27;
  CEC : 27;
  CED : 25;
  CEE : 23;
  CEF : 24;
  CF0 : 21;
  CF1 : 1D;
  CF2 : 19;
  CF3 : 25;
  CF4 : 51;
  CF5 : A3;
  CF6 : D0;
  CF7 : D5;
  CF8 : D6;
  CF9 : D6;
  CFA : D5;
  CFB : D6;
  CFC : D6;
  CFD : D7;
  CFE : D6;
  CFF : D5;
  D00 : D5;
  D01 : D4;
  D02 : D3;
  D03 : D2;
  D04 : D4;
  D05 : D4;
  D06 : D4;
  D07 : D4;
  D08 : D4;
  D09 : D4;
  D0A : D4;
  D0B : D4;
  D0C : D4;
  D0D : D4;
  D0E : D4;
  D0F : D4;
  D10 : D3;
  D11 : D3;
  D12 : D3;
  D13 : D3;
  D14 : D3;
  D15 : D4;
  D16 : D3;
  D17 : D1;
  D18 : D0;
  D19 : CF;
  D1A : CD;
  D1B : CD;
  D1C : CD;
  D1D : CD;
  D1E : CB;
  D1F : AE;
  D20 : D8;
  D21 : D9;
  D22 : D8;
  D23 : D8;
  D24 : D8;
  D25 : D8;
  D26 : D9;
  D27 : DA;
  D28 : DA;
  D29 : D9;
  D2A : DA;
  D2B : DB;
  D2C : DB;
  D2D : DB;
  D2E : DC;
  D2F : DC;
  D30 : DC;
  D31 : DC;
  D32 : DC;
  D33 : DB;
  D34 : DB;
  D35 : DC;
  D36 : DC;
  D37 : DD;
  D38 : DD;
  D39 : DC;
  D3A : DB;
  D3B : DB;
  D3C : DC;
  D3D : DA;
  D3E : D9;
  D3F : D9;
  D40 : D9;
  D41 : D9;
  D42 : D9;
  D43 : D8;
  D44 : D8;
  D45 : D9;
  D46 : D8;
  D47 : D8;
  D48 : D8;
  D49 : D8;
  D4A : D8;
  D4B : D8;
  D4C : D8;
  D4D : D6;
  D4E : D5;
  D4F : D5;
  D50 : D5;
  D51 : D4;
  D52 : D3;
  D53 : D2;
  D54 : D2;
  D55 : D4;
  D56 : D4;
  D57 : D3;
  D58 : D2;
  D59 : D3;
  D5A : D3;
  D5B : D4;
  D5C : D5;
  D5D : D6;
  D5E : D7;
  D5F : B7;
  D60 : 57;
  D61 : 1A;
  D62 : 0E;
  D63 : 0C;
  D64 : 10;
  D65 : 39;
  D66 : 67;
  D67 : 81;
  D68 : 8F;
  D69 : 94;
  D6A : 95;
  D6B : 94;
  D6C : 95;
  D6D : 97;
  D6E : 96;
  D6F : 95;
  D70 : 95;
  D71 : 95;
  D72 : 94;
  D73 : 92;
  D74 : 7A;
  D75 : 4C;
  D76 : 29;
  D77 : 1B;
  D78 : 18;
  D79 : 1B;
  D7A : 1F;
  D7B : 22;
  D7C : 22;
  D7D : 1C;
  D7E : 17;
  D7F : 18;
  D80 : 1A;
  D81 : 1C;
  D82 : 1D;
  D83 : 20;
  D84 : 23;
  D85 : 22;
  D86 : 20;
  D87 : 22;
  D88 : 25;
  D89 : 26;
  D8A : 26;
  D8B : 26;
  D8C : 27;
  D8D : 25;
  D8E : 23;
  D8F : 25;
  D90 : 24;
  D91 : 1F;
  D92 : 1C;
  D93 : 1C;
  D94 : 33;
  D95 : 7E;
  D96 : C6;
  D97 : D7;
  D98 : D6;
  D99 : D5;
  D9A : D5;
  D9B : D5;
  D9C : D5;
  D9D : D6;
  D9E : D6;
  D9F : D5;
  DA0 : D5;
  DA1 : D4;
  DA2 : D3;
  DA3 : D2;
  DA4 : D4;
  DA5 : D4;
  DA6 : D4;
  DA7 : D4;
  DA8 : D4;
  DA9 : D4;
  DAA : D4;
  DAB : D4;
  DAC : D4;
  DAD : D4;
  DAE : D4;
  DAF : D4;
  DB0 : D3;
  DB1 : D3;
  DB2 : D3;
  DB3 : D2;
  DB4 : D2;
  DB5 : D2;
  DB6 : D2;
  DB7 : D1;
  DB8 : D1;
  DB9 : D0;
  DBA : CF;
  DBB : CF;
  DBC : CE;
  DBD : CF;
  DBE : CC;
  DBF : AC;
  DC0 : DB;
  DC1 : DA;
  DC2 : DA;
  DC3 : DA;
  DC4 : DA;
  DC5 : DA;
  DC6 : DB;
  DC7 : DC;
  DC8 : DB;
  DC9 : DB;
  DCA : DB;
  DCB : DB;
  DCC : DB;
  DCD : DC;
  DCE : DC;
  DCF : DC;
  DD0 : DC;
  DD1 : DC;
  DD2 : DD;
  DD3 : DC;
  DD4 : DC;
  DD5 : DD;
  DD6 : DD;
  DD7 : DD;
  DD8 : DC;
  DD9 : DC;
  DDA : DB;
  DDB : DC;
  DDC : DC;
  DDD : DA;
  DDE : D9;
  DDF : D9;
  DE0 : D7;
  DE1 : D8;
  DE2 : D9;
  DE3 : D7;
  DE4 : D6;
  DE5 : D6;
  DE6 : D7;
  DE7 : D8;
  DE8 : D9;
  DE9 : D9;
  DEA : D9;
  DEB : D9;
  DEC : D8;
  DED : D6;
  DEE : D6;
  DEF : D5;
  DF0 : D4;
  DF1 : D3;
  DF2 : D3;
  DF3 : D3;
  DF4 : D3;
  DF5 : D4;
  DF6 : D4;
  DF7 : D3;
  DF8 : D3;
  DF9 : D3;
  DFA : D3;
  DFB : D4;
  DFC : D4;
  DFD : D6;
  DFE : D0;
  DFF : 9D;
  E00 : 3C;
  E01 : 10;
  E02 : 0B;
  E03 : 09;
  E04 : 1E;
  E05 : 58;
  E06 : 80;
  E07 : 8A;
  E08 : 90;
  E09 : 94;
  E0A : 96;
  E0B : 96;
  E0C : 96;
  E0D : 96;
  E0E : 96;
  E0F : 94;
  E10 : 95;
  E11 : 97;
  E12 : 96;
  E13 : 95;
  E14 : 8D;
  E15 : 74;
  E16 : 4A;
  E17 : 24;
  E18 : 15;
  E19 : 13;
  E1A : 14;
  E1B : 1D;
  E1C : 22;
  E1D : 23;
  E1E : 1D;
  E1F : 1C;
  E20 : 1D;
  E21 : 1E;
  E22 : 1D;
  E23 : 1F;
  E24 : 23;
  E25 : 22;
  E26 : 21;
  E27 : 23;
  E28 : 25;
  E29 : 26;
  E2A : 26;
  E2B : 26;
  E2C : 27;
  E2D : 26;
  E2E : 24;
  E2F : 26;
  E30 : 26;
  E31 : 1F;
  E32 : 1C;
  E33 : 1A;
  E34 : 26;
  E35 : 58;
  E36 : B2;
  E37 : D7;
  E38 : D6;
  E39 : D5;
  E3A : D5;
  E3B : D4;
  E3C : D4;
  E3D : D6;
  E3E : D7;
  E3F : D6;
  E40 : D5;
  E41 : D5;
  E42 : D3;
  E43 : D2;
  E44 : D3;
  E45 : D4;
  E46 : D4;
  E47 : D4;
  E48 : D4;
  E49 : D4;
  E4A : D4;
  E4B : D4;
  E4C : D4;
  E4D : D4;
  E4E : D4;
  E4F : D4;
  E50 : D3;
  E51 : D3;
  E52 : D3;
  E53 : D3;
  E54 : D2;
  E55 : D0;
  E56 : D1;
  E57 : D1;
  E58 : D0;
  E59 : D0;
  E5A : D0;
  E5B : D1;
  E5C : D1;
  E5D : D0;
  E5E : CD;
  E5F : AB;
  E60 : DA;
  E61 : DB;
  E62 : DB;
  E63 : DC;
  E64 : DC;
  E65 : DB;
  E66 : DC;
  E67 : DD;
  E68 : DD;
  E69 : DD;
  E6A : DC;
  E6B : DC;
  E6C : DB;
  E6D : DB;
  E6E : DC;
  E6F : DC;
  E70 : DC;
  E71 : DD;
  E72 : DD;
  E73 : DD;
  E74 : DD;
  E75 : DC;
  E76 : DD;
  E77 : DC;
  E78 : DC;
  E79 : DC;
  E7A : DB;
  E7B : DB;
  E7C : DB;
  E7D : DA;
  E7E : D9;
  E7F : D9;
  E80 : D8;
  E81 : D9;
  E82 : D8;
  E83 : D6;
  E84 : D6;
  E85 : D6;
  E86 : D6;
  E87 : D8;
  E88 : D9;
  E89 : D9;
  E8A : D9;
  E8B : D8;
  E8C : D6;
  E8D : D5;
  E8E : D5;
  E8F : D5;
  E90 : D3;
  E91 : D2;
  E92 : D4;
  E93 : D3;
  E94 : D4;
  E95 : D4;
  E96 : D4;
  E97 : D3;
  E98 : D3;
  E99 : D2;
  E9A : D2;
  E9B : D3;
  E9C : D3;
  E9D : D6;
  E9E : C9;
  E9F : 7D;
  EA0 : 2A;
  EA1 : 0D;
  EA2 : 09;
  EA3 : 10;
  EA4 : 36;
  EA5 : 6F;
  EA6 : 87;
  EA7 : 8E;
  EA8 : 91;
  EA9 : 93;
  EAA : 93;
  EAB : 93;
  EAC : 94;
  EAD : 94;
  EAE : 95;
  EAF : 95;
  EB0 : 96;
  EB1 : 96;
  EB2 : 95;
  EB3 : 94;
  EB4 : 91;
  EB5 : 8B;
  EB6 : 73;
  EB7 : 46;
  EB8 : 1E;
  EB9 : 10;
  EBA : 0F;
  EBB : 1A;
  EBC : 24;
  EBD : 27;
  EBE : 23;
  EBF : 1E;
  EC0 : 1D;
  EC1 : 1F;
  EC2 : 21;
  EC3 : 20;
  EC4 : 21;
  EC5 : 23;
  EC6 : 22;
  EC7 : 23;
  EC8 : 24;
  EC9 : 25;
  ECA : 25;
  ECB : 26;
  ECC : 26;
  ECD : 26;
  ECE : 25;
  ECF : 25;
  ED0 : 25;
  ED1 : 20;
  ED2 : 1A;
  ED3 : 18;
  ED4 : 20;
  ED5 : 3C;
  ED6 : 98;
  ED7 : D5;
  ED8 : D6;
  ED9 : D5;
  EDA : D4;
  EDB : D5;
  EDC : D5;
  EDD : D7;
  EDE : D8;
  EDF : D6;
  EE0 : D6;
  EE1 : D5;
  EE2 : D2;
  EE3 : D2;
  EE4 : D3;
  EE5 : D4;
  EE6 : D4;
  EE7 : D4;
  EE8 : D3;
  EE9 : D4;
  EEA : D4;
  EEB : D4;
  EEC : D3;
  EED : D3;
  EEE : D3;
  EEF : D4;
  EF0 : D3;
  EF1 : D2;
  EF2 : D2;
  EF3 : D3;
  EF4 : D1;
  EF5 : CF;
  EF6 : D0;
  EF7 : D1;
  EF8 : D0;
  EF9 : CF;
  EFA : CF;
  EFB : D0;
  EFC : D0;
  EFD : CF;
  EFE : CD;
  EFF : AA;
  F00 : DB;
  F01 : DB;
  F02 : DC;
  F03 : DC;
  F04 : DC;
  F05 : DB;
  F06 : DC;
  F07 : DD;
  F08 : DD;
  F09 : DC;
  F0A : DC;
  F0B : DC;
  F0C : DC;
  F0D : DB;
  F0E : DB;
  F0F : DC;
  F10 : DD;
  F11 : DD;
  F12 : DD;
  F13 : DD;
  F14 : DD;
  F15 : DB;
  F16 : DB;
  F17 : DC;
  F18 : DC;
  F19 : DC;
  F1A : DC;
  F1B : DB;
  F1C : DB;
  F1D : DA;
  F1E : D8;
  F1F : D9;
  F20 : D9;
  F21 : D9;
  F22 : D7;
  F23 : D6;
  F24 : D6;
  F25 : D4;
  F26 : D4;
  F27 : D6;
  F28 : D8;
  F29 : D7;
  F2A : D5;
  F2B : D5;
  F2C : D4;
  F2D : D2;
  F2E : D3;
  F2F : D4;
  F30 : D2;
  F31 : D3;
  F32 : D4;
  F33 : D3;
  F34 : D3;
  F35 : D3;
  F36 : D3;
  F37 : D3;
  F38 : D3;
  F39 : D3;
  F3A : D2;
  F3B : D3;
  F3C : D1;
  F3D : D2;
  F3E : BA;
  F3F : 5E;
  F40 : 1D;
  F41 : 0D;
  F42 : 0A;
  F43 : 17;
  F44 : 3F;
  F45 : 6C;
  F46 : 83;
  F47 : 8D;
  F48 : 8F;
  F49 : 90;
  F4A : 91;
  F4B : 91;
  F4C : 91;
  F4D : 92;
  F4E : 94;
  F4F : 95;
  F50 : 95;
  F51 : 92;
  F52 : 91;
  F53 : 90;
  F54 : 8D;
  F55 : 8A;
  F56 : 82;
  F57 : 6E;
  F58 : 3D;
  F59 : 13;
  F5A : 0F;
  F5B : 1C;
  F5C : 25;
  F5D : 27;
  F5E : 26;
  F5F : 1E;
  F60 : 19;
  F61 : 1C;
  F62 : 20;
  F63 : 1B;
  F64 : 1A;
  F65 : 1F;
  F66 : 23;
  F67 : 23;
  F68 : 23;
  F69 : 23;
  F6A : 25;
  F6B : 26;
  F6C : 26;
  F6D : 26;
  F6E : 24;
  F6F : 23;
  F70 : 26;
  F71 : 25;
  F72 : 1E;
  F73 : 17;
  F74 : 1B;
  F75 : 30;
  F76 : 7B;
  F77 : C9;
  F78 : D8;
  F79 : D5;
  F7A : D5;
  F7B : D5;
  F7C : D5;
  F7D : D7;
  F7E : D8;
  F7F : D7;
  F80 : D5;
  F81 : D4;
  F82 : D3;
  F83 : D2;
  F84 : D3;
  F85 : D4;
  F86 : D3;
  F87 : D3;
  F88 : D4;
  F89 : D4;
  F8A : D3;
  F8B : D4;
  F8C : D3;
  F8D : D3;
  F8E : D3;
  F8F : D4;
  F90 : D3;
  F91 : D2;
  F92 : D2;
  F93 : D2;
  F94 : D1;
  F95 : CF;
  F96 : CF;
  F97 : D0;
  F98 : D0;
  F99 : D0;
  F9A : CF;
  F9B : CF;
  F9C : CF;
  F9D : CF;
  F9E : CE;
  F9F : AB;
  FA0 : DB;
  FA1 : DB;
  FA2 : DB;
  FA3 : DB;
  FA4 : DB;
  FA5 : DB;
  FA6 : DA;
  FA7 : DB;
  FA8 : DB;
  FA9 : DB;
  FAA : DB;
  FAB : DA;
  FAC : D9;
  FAD : DA;
  FAE : DB;
  FAF : DC;
  FB0 : DD;
  FB1 : DD;
  FB2 : DD;
  FB3 : DD;
  FB4 : DC;
  FB5 : DB;
  FB6 : DB;
  FB7 : DC;
  FB8 : DC;
  FB9 : DC;
  FBA : DC;
  FBB : DB;
  FBC : DB;
  FBD : DA;
  FBE : D8;
  FBF : D8;
  FC0 : D8;
  FC1 : D9;
  FC2 : D8;
  FC3 : D6;
  FC4 : D6;
  FC5 : D5;
  FC6 : D4;
  FC7 : D7;
  FC8 : D8;
  FC9 : D7;
  FCA : D5;
  FCB : D5;
  FCC : D4;
  FCD : D3;
  FCE : D3;
  FCF : D4;
  FD0 : D4;
  FD1 : D3;
  FD2 : D4;
  FD3 : D3;
  FD4 : D3;
  FD5 : D3;
  FD6 : D3;
  FD7 : D3;
  FD8 : D4;
  FD9 : D5;
  FDA : D3;
  FDB : D2;
  FDC : CE;
  FDD : CC;
  FDE : AA;
  FDF : 48;
  FE0 : 11;
  FE1 : 0A;
  FE2 : 09;
  FE3 : 15;
  FE4 : 25;
  FE5 : 36;
  FE6 : 54;
  FE7 : 74;
  FE8 : 8A;
  FE9 : 8D;
  FEA : 8E;
  FEB : 8D;
  FEC : 8C;
  FED : 90;
  FEE : 8D;
  FEF : 88;
  FF0 : 81;
  FF1 : 7A;
  FF2 : 6E;
  FF3 : 63;
  FF4 : 5E;
  FF5 : 5E;
  FF6 : 5F;
  FF7 : 60;
  FF8 : 51;
  FF9 : 25;
  FFA : 0F;
  FFB : 15;
  FFC : 1F;
  FFD : 23;
  FFE : 23;
  FFF : 1F;
  1000 : 17;
  1001 : 19;
  1002 : 1A;
  1003 : 15;
  1004 : 15;
  1005 : 1C;
  1006 : 22;
  1007 : 23;
  1008 : 23;
  1009 : 23;
  100A : 25;
  100B : 26;
  100C : 26;
  100D : 26;
  100E : 25;
  100F : 24;
  1010 : 27;
  1011 : 29;
  1012 : 24;
  1013 : 1B;
  1014 : 16;
  1015 : 25;
  1016 : 5E;
  1017 : B6;
  1018 : D8;
  1019 : D6;
  101A : D5;
  101B : D5;
  101C : D5;
  101D : D7;
  101E : D9;
  101F : D8;
  1020 : D5;
  1021 : D4;
  1022 : D3;
  1023 : D2;
  1024 : D3;
  1025 : D4;
  1026 : D5;
  1027 : D4;
  1028 : D3;
  1029 : D2;
  102A : D3;
  102B : D3;
  102C : D1;
  102D : D2;
  102E : D2;
  102F : D2;
  1030 : D2;
  1031 : D2;
  1032 : D1;
  1033 : D0;
  1034 : D0;
  1035 : CF;
  1036 : CF;
  1037 : D0;
  1038 : D0;
  1039 : CF;
  103A : CD;
  103B : CE;
  103C : CF;
  103D : CF;
  103E : CE;
  103F : AE;
  1040 : DB;
  1041 : DB;
  1042 : DB;
  1043 : DB;
  1044 : DA;
  1045 : DA;
  1046 : DA;
  1047 : DA;
  1048 : D9;
  1049 : DA;
  104A : DA;
  104B : D8;
  104C : D8;
  104D : D9;
  104E : D9;
  104F : DB;
  1050 : DD;
  1051 : DD;
  1052 : DD;
  1053 : DD;
  1054 : DB;
  1055 : DA;
  1056 : DB;
  1057 : DC;
  1058 : DC;
  1059 : DB;
  105A : DB;
  105B : DB;
  105C : DC;
  105D : DB;
  105E : D9;
  105F : D8;
  1060 : D8;
  1061 : D8;
  1062 : D8;
  1063 : D7;
  1064 : D6;
  1065 : D4;
  1066 : D4;
  1067 : D7;
  1068 : D8;
  1069 : D7;
  106A : D6;
  106B : D5;
  106C : D4;
  106D : D4;
  106E : D4;
  106F : D4;
  1070 : D5;
  1071 : D4;
  1072 : D4;
  1073 : D4;
  1074 : D3;
  1075 : D3;
  1076 : D3;
  1077 : D3;
  1078 : D4;
  1079 : D5;
  107A : D3;
  107B : CF;
  107C : CE;
  107D : CB;
  107E : 9B;
  107F : 37;
  1080 : 0C;
  1081 : 09;
  1082 : 0F;
  1083 : 26;
  1084 : 25;
  1085 : 19;
  1086 : 23;
  1087 : 42;
  1088 : 70;
  1089 : 83;
  108A : 85;
  108B : 87;
  108C : 85;
  108D : 83;
  108E : 6C;
  108F : 50;
  1090 : 3C;
  1091 : 36;
  1092 : 28;
  1093 : 1D;
  1094 : 1B;
  1095 : 1E;
  1096 : 21;
  1097 : 26;
  1098 : 2C;
  1099 : 22;
  109A : 0F;
  109B : 0F;
  109C : 17;
  109D : 1A;
  109E : 1B;
  109F : 18;
  10A0 : 14;
  10A1 : 16;
  10A2 : 16;
  10A3 : 13;
  10A4 : 14;
  10A5 : 1C;
  10A6 : 22;
  10A7 : 23;
  10A8 : 23;
  10A9 : 24;
  10AA : 25;
  10AB : 26;
  10AC : 26;
  10AD : 27;
  10AE : 25;
  10AF : 25;
  10B0 : 28;
  10B1 : 2C;
  10B2 : 27;
  10B3 : 23;
  10B4 : 1B;
  10B5 : 20;
  10B6 : 41;
  10B7 : 9C;
  10B8 : D5;
  10B9 : D7;
  10BA : D5;
  10BB : D4;
  10BC : D5;
  10BD : D8;
  10BE : D8;
  10BF : D7;
  10C0 : D6;
  10C1 : D4;
  10C2 : D3;
  10C3 : D3;
  10C4 : D3;
  10C5 : D4;
  10C6 : D5;
  10C7 : D5;
  10C8 : D1;
  10C9 : D0;
  10CA : D2;
  10CB : D2;
  10CC : D0;
  10CD : D0;
  10CE : D0;
  10CF : D0;
  10D0 : D0;
  10D1 : CF;
  10D2 : CF;
  10D3 : CF;
  10D4 : D0;
  10D5 : CF;
  10D6 : CF;
  10D7 : CF;
  10D8 : D0;
  10D9 : CF;
  10DA : CD;
  10DB : CD;
  10DC : CE;
  10DD : CF;
  10DE : CD;
  10DF : AD;
  10E0 : DB;
  10E1 : DB;
  10E2 : DB;
  10E3 : DB;
  10E4 : DB;
  10E5 : DA;
  10E6 : DA;
  10E7 : DB;
  10E8 : DA;
  10E9 : DA;
  10EA : DA;
  10EB : DA;
  10EC : DA;
  10ED : DA;
  10EE : D8;
  10EF : D9;
  10F0 : DB;
  10F1 : DC;
  10F2 : DC;
  10F3 : DC;
  10F4 : DB;
  10F5 : DA;
  10F6 : DA;
  10F7 : DB;
  10F8 : DB;
  10F9 : DA;
  10FA : DA;
  10FB : DA;
  10FC : DB;
  10FD : DB;
  10FE : D9;
  10FF : D9;
  1100 : D9;
  1101 : D9;
  1102 : D8;
  1103 : D8;
  1104 : D5;
  1105 : D3;
  1106 : D2;
  1107 : D3;
  1108 : D4;
  1109 : D4;
  110A : D3;
  110B : D3;
  110C : D3;
  110D : D3;
  110E : D3;
  110F : D3;
  1110 : D3;
  1111 : D4;
  1112 : D4;
  1113 : D4;
  1114 : D3;
  1115 : D3;
  1116 : D2;
  1117 : D3;
  1118 : D4;
  1119 : D5;
  111A : D2;
  111B : CF;
  111C : CE;
  111D : CA;
  111E : 8E;
  111F : 2D;
  1120 : 0B;
  1121 : 0C;
  1122 : 18;
  1123 : 2F;
  1124 : 31;
  1125 : 21;
  1126 : 1C;
  1127 : 26;
  1128 : 4C;
  1129 : 6F;
  112A : 80;
  112B : 85;
  112C : 82;
  112D : 74;
  112E : 48;
  112F : 1E;
  1130 : 13;
  1131 : 11;
  1132 : 14;
  1133 : 1A;
  1134 : 22;
  1135 : 28;
  1136 : 30;
  1137 : 33;
  1138 : 25;
  1139 : 18;
  113A : 08;
  113B : 0C;
  113C : 11;
  113D : 11;
  113E : 13;
  113F : 13;
  1140 : 11;
  1141 : 13;
  1142 : 15;
  1143 : 13;
  1144 : 13;
  1145 : 1A;
  1146 : 21;
  1147 : 24;
  1148 : 24;
  1149 : 25;
  114A : 26;
  114B : 26;
  114C : 26;
  114D : 26;
  114E : 26;
  114F : 26;
  1150 : 29;
  1151 : 2C;
  1152 : 27;
  1153 : 25;
  1154 : 1E;
  1155 : 1F;
  1156 : 32;
  1157 : 7E;
  1158 : CA;
  1159 : D9;
  115A : D6;
  115B : D5;
  115C : D6;
  115D : D8;
  115E : D9;
  115F : D8;
  1160 : D6;
  1161 : D3;
  1162 : D3;
  1163 : D2;
  1164 : D3;
  1165 : D3;
  1166 : D4;
  1167 : D3;
  1168 : D2;
  1169 : D2;
  116A : D3;
  116B : D3;
  116C : D1;
  116D : D1;
  116E : D1;
  116F : D1;
  1170 : D1;
  1171 : D1;
  1172 : D0;
  1173 : D0;
  1174 : D0;
  1175 : CF;
  1176 : CE;
  1177 : CE;
  1178 : CE;
  1179 : CE;
  117A : CE;
  117B : CD;
  117C : CD;
  117D : CE;
  117E : CC;
  117F : AD;
  1180 : DB;
  1181 : DB;
  1182 : DB;
  1183 : DB;
  1184 : DB;
  1185 : DB;
  1186 : DB;
  1187 : DB;
  1188 : DB;
  1189 : DB;
  118A : DB;
  118B : DB;
  118C : DB;
  118D : DB;
  118E : D9;
  118F : D8;
  1190 : DA;
  1191 : DA;
  1192 : DA;
  1193 : D9;
  1194 : D9;
  1195 : D9;
  1196 : DA;
  1197 : DA;
  1198 : DA;
  1199 : DA;
  119A : DA;
  119B : DA;
  119C : DA;
  119D : D9;
  119E : D9;
  119F : DA;
  11A0 : D9;
  11A1 : DA;
  11A2 : DA;
  11A3 : D8;
  11A4 : D5;
  11A5 : D2;
  11A6 : D2;
  11A7 : D3;
  11A8 : D4;
  11A9 : D3;
  11AA : D3;
  11AB : D4;
  11AC : D4;
  11AD : D4;
  11AE : D3;
  11AF : D2;
  11B0 : D3;
  11B1 : D2;
  11B2 : D1;
  11B3 : D2;
  11B4 : D2;
  11B5 : D2;
  11B6 : D2;
  11B7 : D4;
  11B8 : D4;
  11B9 : D4;
  11BA : D2;
  11BB : CF;
  11BC : CF;
  11BD : C7;
  11BE : 7E;
  11BF : 20;
  11C0 : 09;
  11C1 : 0B;
  11C2 : 12;
  11C3 : 1C;
  11C4 : 29;
  11C5 : 29;
  11C6 : 1D;
  11C7 : 14;
  11C8 : 2A;
  11C9 : 56;
  11CA : 7E;
  11CB : 88;
  11CC : 81;
  11CD : 70;
  11CE : 4B;
  11CF : 2C;
  11D0 : 26;
  11D1 : 26;
  11D2 : 2A;
  11D3 : 32;
  11D4 : 3E;
  11D5 : 3E;
  11D6 : 46;
  11D7 : 51;
  11D8 : 4C;
  11D9 : 37;
  11DA : 17;
  11DB : 0D;
  11DC : 0F;
  11DD : 10;
  11DE : 11;
  11DF : 12;
  11E0 : 11;
  11E1 : 11;
  11E2 : 11;
  11E3 : 12;
  11E4 : 11;
  11E5 : 18;
  11E6 : 21;
  11E7 : 23;
  11E8 : 25;
  11E9 : 26;
  11EA : 26;
  11EB : 26;
  11EC : 25;
  11ED : 23;
  11EE : 25;
  11EF : 25;
  11F0 : 27;
  11F1 : 24;
  11F2 : 23;
  11F3 : 23;
  11F4 : 1E;
  11F5 : 1E;
  11F6 : 29;
  11F7 : 62;
  11F8 : BB;
  11F9 : D6;
  11FA : D4;
  11FB : D5;
  11FC : D6;
  11FD : D7;
  11FE : D9;
  11FF : D9;
  1200 : D6;
  1201 : D3;
  1202 : D3;
  1203 : D3;
  1204 : D3;
  1205 : D4;
  1206 : D4;
  1207 : D3;
  1208 : D4;
  1209 : D4;
  120A : D4;
  120B : D3;
  120C : D2;
  120D : D2;
  120E : D2;
  120F : D3;
  1210 : D4;
  1211 : D2;
  1212 : D1;
  1213 : CF;
  1214 : CE;
  1215 : CD;
  1216 : CD;
  1217 : CE;
  1218 : CE;
  1219 : CE;
  121A : CE;
  121B : CD;
  121C : CC;
  121D : CD;
  121E : CC;
  121F : AE;
  1220 : DB;
  1221 : DB;
  1222 : DB;
  1223 : DB;
  1224 : DB;
  1225 : DB;
  1226 : DB;
  1227 : DB;
  1228 : DB;
  1229 : DB;
  122A : DB;
  122B : DA;
  122C : DA;
  122D : DB;
  122E : D9;
  122F : D9;
  1230 : DB;
  1231 : D9;
  1232 : D9;
  1233 : D9;
  1234 : D9;
  1235 : D9;
  1236 : DA;
  1237 : DA;
  1238 : DA;
  1239 : DB;
  123A : DB;
  123B : DB;
  123C : D9;
  123D : D8;
  123E : D9;
  123F : DA;
  1240 : DA;
  1241 : DA;
  1242 : D9;
  1243 : D8;
  1244 : D5;
  1245 : D2;
  1246 : D1;
  1247 : D3;
  1248 : D4;
  1249 : D4;
  124A : D4;
  124B : D4;
  124C : D4;
  124D : D4;
  124E : D3;
  124F : D2;
  1250 : D2;
  1251 : D2;
  1252 : D0;
  1253 : D0;
  1254 : D2;
  1255 : D2;
  1256 : D3;
  1257 : D4;
  1258 : D4;
  1259 : D4;
  125A : D1;
  125B : CE;
  125C : CE;
  125D : C1;
  125E : 73;
  125F : 19;
  1260 : 07;
  1261 : 08;
  1262 : 07;
  1263 : 16;
  1264 : 3F;
  1265 : 57;
  1266 : 38;
  1267 : 19;
  1268 : 17;
  1269 : 3D;
  126A : 7C;
  126B : 8A;
  126C : 81;
  126D : 72;
  126E : 5B;
  126F : 45;
  1270 : 37;
  1271 : 34;
  1272 : 2E;
  1273 : 2E;
  1274 : 2E;
  1275 : 26;
  1276 : 20;
  1277 : 22;
  1278 : 32;
  1279 : 30;
  127A : 1A;
  127B : 0E;
  127C : 0F;
  127D : 10;
  127E : 10;
  127F : 10;
  1280 : 10;
  1281 : 11;
  1282 : 0F;
  1283 : 10;
  1284 : 0F;
  1285 : 14;
  1286 : 20;
  1287 : 22;
  1288 : 24;
  1289 : 25;
  128A : 26;
  128B : 26;
  128C : 24;
  128D : 21;
  128E : 21;
  128F : 23;
  1290 : 22;
  1291 : 20;
  1292 : 20;
  1293 : 21;
  1294 : 1F;
  1295 : 1D;
  1296 : 21;
  1297 : 4E;
  1298 : AB;
  1299 : D3;
  129A : D2;
  129B : D3;
  129C : D4;
  129D : D5;
  129E : D7;
  129F : D7;
  12A0 : D5;
  12A1 : D4;
  12A2 : D3;
  12A3 : D3;
  12A4 : D3;
  12A5 : D4;
  12A6 : D4;
  12A7 : D4;
  12A8 : D3;
  12A9 : D3;
  12AA : D4;
  12AB : D4;
  12AC : D3;
  12AD : D2;
  12AE : D2;
  12AF : D3;
  12B0 : D1;
  12B1 : D0;
  12B2 : CE;
  12B3 : CC;
  12B4 : CC;
  12B5 : CC;
  12B6 : CD;
  12B7 : CE;
  12B8 : CE;
  12B9 : CE;
  12BA : CE;
  12BB : CD;
  12BC : CA;
  12BD : CC;
  12BE : CB;
  12BF : AD;
  12C0 : DB;
  12C1 : DB;
  12C2 : DB;
  12C3 : DB;
  12C4 : DB;
  12C5 : DB;
  12C6 : DB;
  12C7 : DB;
  12C8 : DB;
  12C9 : DA;
  12CA : DB;
  12CB : DA;
  12CC : DA;
  12CD : DB;
  12CE : D9;
  12CF : D9;
  12D0 : DB;
  12D1 : DA;
  12D2 : DA;
  12D3 : D9;
  12D4 : DA;
  12D5 : DB;
  12D6 : DB;
  12D7 : DB;
  12D8 : DB;
  12D9 : DB;
  12DA : DB;
  12DB : DA;
  12DC : D9;
  12DD : D9;
  12DE : D9;
  12DF : D9;
  12E0 : D9;
  12E1 : DA;
  12E2 : D8;
  12E3 : D7;
  12E4 : D5;
  12E5 : D2;
  12E6 : D2;
  12E7 : D3;
  12E8 : D4;
  12E9 : D4;
  12EA : D4;
  12EB : D4;
  12EC : D4;
  12ED : D4;
  12EE : D3;
  12EF : D2;
  12F0 : D3;
  12F1 : D2;
  12F2 : D2;
  12F3 : D2;
  12F4 : D2;
  12F5 : D2;
  12F6 : D1;
  12F7 : D1;
  12F8 : D1;
  12F9 : D1;
  12FA : CF;
  12FB : CD;
  12FC : CB;
  12FD : BC;
  12FE : 6E;
  12FF : 17;
  1300 : 07;
  1301 : 06;
  1302 : 06;
  1303 : 20;
  1304 : 4A;
  1305 : 65;
  1306 : 50;
  1307 : 2F;
  1308 : 1F;
  1309 : 49;
  130A : 89;
  130B : 8E;
  130C : 82;
  130D : 78;
  130E : 6C;
  130F : 5D;
  1310 : 51;
  1311 : 49;
  1312 : 3B;
  1313 : 3A;
  1314 : 44;
  1315 : 45;
  1316 : 2B;
  1317 : 14;
  1318 : 12;
  1319 : 14;
  131A : 14;
  131B : 0F;
  131C : 0E;
  131D : 10;
  131E : 10;
  131F : 11;
  1320 : 11;
  1321 : 11;
  1322 : 11;
  1323 : 0F;
  1324 : 0E;
  1325 : 13;
  1326 : 20;
  1327 : 23;
  1328 : 24;
  1329 : 24;
  132A : 25;
  132B : 25;
  132C : 23;
  132D : 1F;
  132E : 1F;
  132F : 22;
  1330 : 22;
  1331 : 20;
  1332 : 22;
  1333 : 21;
  1334 : 1F;
  1335 : 1C;
  1336 : 1D;
  1337 : 40;
  1338 : 9A;
  1339 : D1;
  133A : D2;
  133B : D2;
  133C : D2;
  133D : D3;
  133E : D5;
  133F : D5;
  1340 : D4;
  1341 : D3;
  1342 : D3;
  1343 : D2;
  1344 : D4;
  1345 : D4;
  1346 : D4;
  1347 : D4;
  1348 : D4;
  1349 : D3;
  134A : D3;
  134B : D3;
  134C : D3;
  134D : D4;
  134E : D3;
  134F : D1;
  1350 : D0;
  1351 : CF;
  1352 : CD;
  1353 : CC;
  1354 : CD;
  1355 : CD;
  1356 : CD;
  1357 : CE;
  1358 : CD;
  1359 : CE;
  135A : CE;
  135B : CD;
  135C : CB;
  135D : CB;
  135E : CA;
  135F : AB;
  1360 : DB;
  1361 : DB;
  1362 : DB;
  1363 : DB;
  1364 : DB;
  1365 : DB;
  1366 : DB;
  1367 : DB;
  1368 : DB;
  1369 : DB;
  136A : DB;
  136B : DB;
  136C : DB;
  136D : DB;
  136E : D9;
  136F : D9;
  1370 : DB;
  1371 : DA;
  1372 : DA;
  1373 : D9;
  1374 : D9;
  1375 : DB;
  1376 : DB;
  1377 : DB;
  1378 : DB;
  1379 : DB;
  137A : DA;
  137B : DA;
  137C : DA;
  137D : D9;
  137E : D9;
  137F : D8;
  1380 : D9;
  1381 : DA;
  1382 : D8;
  1383 : D6;
  1384 : D5;
  1385 : D2;
  1386 : D2;
  1387 : D3;
  1388 : D4;
  1389 : D4;
  138A : D4;
  138B : D4;
  138C : D4;
  138D : D4;
  138E : D2;
  138F : D2;
  1390 : D2;
  1391 : D2;
  1392 : D3;
  1393 : D2;
  1394 : D3;
  1395 : D2;
  1396 : D1;
  1397 : D0;
  1398 : CE;
  1399 : CE;
  139A : CD;
  139B : CA;
  139C : C7;
  139D : B8;
  139E : 68;
  139F : 15;
  13A0 : 08;
  13A1 : 06;
  13A2 : 0D;
  13A3 : 2D;
  13A4 : 45;
  13A5 : 50;
  13A6 : 51;
  13A7 : 4A;
  13A8 : 4C;
  13A9 : 72;
  13AA : 98;
  13AB : 93;
  13AC : 85;
  13AD : 7E;
  13AE : 7D;
  13AF : 78;
  13B0 : 6F;
  13B1 : 63;
  13B2 : 52;
  13B3 : 50;
  13B4 : 5E;
  13B5 : 63;
  13B6 : 4B;
  13B7 : 37;
  13B8 : 29;
  13B9 : 1D;
  13BA : 15;
  13BB : 12;
  13BC : 10;
  13BD : 0F;
  13BE : 10;
  13BF : 10;
  13C0 : 11;
  13C1 : 11;
  13C2 : 12;
  13C3 : 11;
  13C4 : 0E;
  13C5 : 14;
  13C6 : 21;
  13C7 : 24;
  13C8 : 22;
  13C9 : 23;
  13CA : 24;
  13CB : 24;
  13CC : 23;
  13CD : 1F;
  13CE : 21;
  13CF : 24;
  13D0 : 25;
  13D1 : 26;
  13D2 : 27;
  13D3 : 22;
  13D4 : 1E;
  13D5 : 1D;
  13D6 : 1E;
  13D7 : 38;
  13D8 : 8A;
  13D9 : C8;
  13DA : D1;
  13DB : D2;
  13DC : D2;
  13DD : D2;
  13DE : D4;
  13DF : D5;
  13E0 : D4;
  13E1 : D3;
  13E2 : D3;
  13E3 : D3;
  13E4 : D3;
  13E5 : D4;
  13E6 : D4;
  13E7 : D4;
  13E8 : D4;
  13E9 : D3;
  13EA : D3;
  13EB : D3;
  13EC : D4;
  13ED : D3;
  13EE : D1;
  13EF : D0;
  13F0 : CF;
  13F1 : D0;
  13F2 : CE;
  13F3 : CD;
  13F4 : CD;
  13F5 : CD;
  13F6 : CE;
  13F7 : CE;
  13F8 : CC;
  13F9 : CE;
  13FA : CE;
  13FB : CE;
  13FC : CC;
  13FD : CB;
  13FE : C9;
  13FF : A9;
  1400 : DB;
  1401 : DB;
  1402 : DB;
  1403 : DB;
  1404 : DB;
  1405 : DB;
  1406 : DB;
  1407 : DB;
  1408 : DA;
  1409 : DA;
  140A : DA;
  140B : DA;
  140C : DA;
  140D : DB;
  140E : D9;
  140F : D9;
  1410 : DB;
  1411 : DB;
  1412 : DA;
  1413 : D9;
  1414 : D9;
  1415 : DA;
  1416 : DA;
  1417 : DA;
  1418 : DA;
  1419 : D9;
  141A : D9;
  141B : D9;
  141C : DA;
  141D : D9;
  141E : D7;
  141F : D7;
  1420 : D8;
  1421 : D9;
  1422 : D7;
  1423 : D6;
  1424 : D4;
  1425 : D3;
  1426 : D2;
  1427 : D3;
  1428 : D4;
  1429 : D4;
  142A : D4;
  142B : D4;
  142C : D3;
  142D : D3;
  142E : D3;
  142F : D2;
  1430 : D2;
  1431 : D3;
  1432 : D3;
  1433 : D2;
  1434 : D2;
  1435 : D1;
  1436 : D0;
  1437 : CF;
  1438 : CE;
  1439 : CD;
  143A : CC;
  143B : CA;
  143C : C8;
  143D : B5;
  143E : 61;
  143F : 15;
  1440 : 09;
  1441 : 08;
  1442 : 16;
  1443 : 3A;
  1444 : 4D;
  1445 : 56;
  1446 : 5A;
  1447 : 62;
  1448 : 75;
  1449 : 8F;
  144A : 98;
  144B : 8F;
  144C : 89;
  144D : 87;
  144E : 87;
  144F : 84;
  1450 : 7F;
  1451 : 75;
  1452 : 65;
  1453 : 59;
  1454 : 54;
  1455 : 57;
  1456 : 50;
  1457 : 4D;
  1458 : 48;
  1459 : 3D;
  145A : 2E;
  145B : 1A;
  145C : 11;
  145D : 0F;
  145E : 0E;
  145F : 0E;
  1460 : 10;
  1461 : 11;
  1462 : 12;
  1463 : 10;
  1464 : 0E;
  1465 : 12;
  1466 : 1F;
  1467 : 23;
  1468 : 22;
  1469 : 22;
  146A : 22;
  146B : 22;
  146C : 20;
  146D : 20;
  146E : 24;
  146F : 28;
  1470 : 2A;
  1471 : 2C;
  1472 : 2A;
  1473 : 24;
  1474 : 1D;
  1475 : 1C;
  1476 : 1F;
  1477 : 34;
  1478 : 7E;
  1479 : C6;
  147A : D3;
  147B : D2;
  147C : D1;
  147D : D2;
  147E : D2;
  147F : D4;
  1480 : D4;
  1481 : D4;
  1482 : D4;
  1483 : D3;
  1484 : D3;
  1485 : D4;
  1486 : D4;
  1487 : D3;
  1488 : D4;
  1489 : D3;
  148A : D2;
  148B : D2;
  148C : D1;
  148D : CF;
  148E : CE;
  148F : CE;
  1490 : CE;
  1491 : CE;
  1492 : CD;
  1493 : CD;
  1494 : CD;
  1495 : CD;
  1496 : CD;
  1497 : CC;
  1498 : CC;
  1499 : CC;
  149A : CB;
  149B : CB;
  149C : CB;
  149D : CC;
  149E : C8;
  149F : A9;
  14A0 : DB;
  14A1 : DB;
  14A2 : DB;
  14A3 : DB;
  14A4 : DB;
  14A5 : DB;
  14A6 : DB;
  14A7 : DB;
  14A8 : D9;
  14A9 : D8;
  14AA : DA;
  14AB : DA;
  14AC : D9;
  14AD : DB;
  14AE : DA;
  14AF : D9;
  14B0 : DB;
  14B1 : DA;
  14B2 : DA;
  14B3 : DA;
  14B4 : D9;
  14B5 : D9;
  14B6 : D8;
  14B7 : D9;
  14B8 : DA;
  14B9 : D8;
  14BA : D8;
  14BB : D9;
  14BC : DA;
  14BD : D8;
  14BE : D5;
  14BF : D5;
  14C0 : D6;
  14C1 : D6;
  14C2 : D6;
  14C3 : D5;
  14C4 : D3;
  14C5 : D3;
  14C6 : D3;
  14C7 : D3;
  14C8 : D3;
  14C9 : D4;
  14CA : D4;
  14CB : D4;
  14CC : D3;
  14CD : D2;
  14CE : D2;
  14CF : D2;
  14D0 : D3;
  14D1 : D3;
  14D2 : D2;
  14D3 : D1;
  14D4 : D1;
  14D5 : D0;
  14D6 : CE;
  14D7 : CD;
  14D8 : CD;
  14D9 : CD;
  14DA : CC;
  14DB : CB;
  14DC : CB;
  14DD : B4;
  14DE : 5E;
  14DF : 16;
  14E0 : 09;
  14E1 : 0B;
  14E2 : 1F;
  14E3 : 4A;
  14E4 : 65;
  14E5 : 6D;
  14E6 : 6F;
  14E7 : 76;
  14E8 : 8D;
  14E9 : A6;
  14EA : 99;
  14EB : 8A;
  14EC : 87;
  14ED : 88;
  14EE : 89;
  14EF : 88;
  14F0 : 86;
  14F1 : 7F;
  14F2 : 74;
  14F3 : 6B;
  14F4 : 64;
  14F5 : 64;
  14F6 : 63;
  14F7 : 5F;
  14F8 : 5D;
  14F9 : 5F;
  14FA : 4D;
  14FB : 22;
  14FC : 0E;
  14FD : 0D;
  14FE : 0E;
  14FF : 0F;
  1500 : 0F;
  1501 : 10;
  1502 : 0F;
  1503 : 0F;
  1504 : 0D;
  1505 : 10;
  1506 : 1D;
  1507 : 23;
  1508 : 21;
  1509 : 20;
  150A : 21;
  150B : 20;
  150C : 1F;
  150D : 20;
  150E : 27;
  150F : 2C;
  1510 : 2E;
  1511 : 2B;
  1512 : 28;
  1513 : 25;
  1514 : 1E;
  1515 : 18;
  1516 : 1D;
  1517 : 2E;
  1518 : 73;
  1519 : BF;
  151A : CE;
  151B : D0;
  151C : D1;
  151D : D0;
  151E : D2;
  151F : D4;
  1520 : D5;
  1521 : D4;
  1522 : D3;
  1523 : D3;
  1524 : D3;
  1525 : D4;
  1526 : D3;
  1527 : D3;
  1528 : D3;
  1529 : D0;
  152A : CE;
  152B : CE;
  152C : CE;
  152D : CD;
  152E : CD;
  152F : CD;
  1530 : CD;
  1531 : CD;
  1532 : CD;
  1533 : CC;
  1534 : CC;
  1535 : CD;
  1536 : CC;
  1537 : CB;
  1538 : CB;
  1539 : CB;
  153A : C9;
  153B : C8;
  153C : CA;
  153D : CC;
  153E : CA;
  153F : AB;
  1540 : DB;
  1541 : DB;
  1542 : DB;
  1543 : DB;
  1544 : DA;
  1545 : DA;
  1546 : DB;
  1547 : DA;
  1548 : D9;
  1549 : D7;
  154A : D8;
  154B : D8;
  154C : D9;
  154D : DA;
  154E : DA;
  154F : DB;
  1550 : DB;
  1551 : DA;
  1552 : D8;
  1553 : D9;
  1554 : D9;
  1555 : D9;
  1556 : D8;
  1557 : DA;
  1558 : DA;
  1559 : D9;
  155A : D8;
  155B : D8;
  155C : D8;
  155D : D7;
  155E : D5;
  155F : D5;
  1560 : D5;
  1561 : D5;
  1562 : D5;
  1563 : D4;
  1564 : D4;
  1565 : D3;
  1566 : D3;
  1567 : D3;
  1568 : D3;
  1569 : D4;
  156A : D4;
  156B : D4;
  156C : D4;
  156D : D3;
  156E : D2;
  156F : D3;
  1570 : D2;
  1571 : D1;
  1572 : D1;
  1573 : D0;
  1574 : D0;
  1575 : CE;
  1576 : CE;
  1577 : CC;
  1578 : CB;
  1579 : CB;
  157A : CB;
  157B : CB;
  157C : CB;
  157D : B5;
  157E : 5D;
  157F : 16;
  1580 : 0A;
  1581 : 0C;
  1582 : 23;
  1583 : 56;
  1584 : 71;
  1585 : 78;
  1586 : 7A;
  1587 : 80;
  1588 : 9A;
  1589 : AC;
  158A : 97;
  158B : 87;
  158C : 85;
  158D : 87;
  158E : 88;
  158F : 89;
  1590 : 89;
  1591 : 86;
  1592 : 81;
  1593 : 7E;
  1594 : 7C;
  1595 : 7B;
  1596 : 7C;
  1597 : 7C;
  1598 : 80;
  1599 : 80;
  159A : 60;
  159B : 28;
  159C : 0F;
  159D : 0E;
  159E : 0F;
  159F : 0F;
  15A0 : 0F;
  15A1 : 0F;
  15A2 : 10;
  15A3 : 0F;
  15A4 : 0D;
  15A5 : 0F;
  15A6 : 1D;
  15A7 : 23;
  15A8 : 21;
  15A9 : 1E;
  15AA : 1F;
  15AB : 1F;
  15AC : 1F;
  15AD : 20;
  15AE : 26;
  15AF : 2C;
  15B0 : 2D;
  15B1 : 2A;
  15B2 : 27;
  15B3 : 27;
  15B4 : 1F;
  15B5 : 17;
  15B6 : 1C;
  15B7 : 2A;
  15B8 : 69;
  15B9 : B3;
  15BA : C7;
  15BB : CE;
  15BC : D1;
  15BD : D1;
  15BE : D2;
  15BF : D3;
  15C0 : D4;
  15C1 : D3;
  15C2 : D3;
  15C3 : D3;
  15C4 : D3;
  15C5 : D3;
  15C6 : D3;
  15C7 : D3;
  15C8 : D3;
  15C9 : D1;
  15CA : CF;
  15CB : CE;
  15CC : CD;
  15CD : CE;
  15CE : CE;
  15CF : CE;
  15D0 : CE;
  15D1 : CE;
  15D2 : CC;
  15D3 : CB;
  15D4 : CB;
  15D5 : CB;
  15D6 : CB;
  15D7 : CB;
  15D8 : CC;
  15D9 : CA;
  15DA : C8;
  15DB : C9;
  15DC : CB;
  15DD : CB;
  15DE : CA;
  15DF : AA;
  15E0 : DB;
  15E1 : DB;
  15E2 : DB;
  15E3 : DB;
  15E4 : DB;
  15E5 : DB;
  15E6 : DB;
  15E7 : DB;
  15E8 : DA;
  15E9 : D7;
  15EA : D6;
  15EB : D8;
  15EC : D9;
  15ED : DA;
  15EE : DB;
  15EF : DC;
  15F0 : DB;
  15F1 : D9;
  15F2 : D7;
  15F3 : D7;
  15F4 : D9;
  15F5 : D9;
  15F6 : D9;
  15F7 : D9;
  15F8 : D9;
  15F9 : D9;
  15FA : D8;
  15FB : D6;
  15FC : D5;
  15FD : D6;
  15FE : D6;
  15FF : D6;
  1600 : D5;
  1601 : D4;
  1602 : D4;
  1603 : D4;
  1604 : D3;
  1605 : D3;
  1606 : D4;
  1607 : D4;
  1608 : D4;
  1609 : D4;
  160A : D4;
  160B : D4;
  160C : D4;
  160D : D3;
  160E : D3;
  160F : D3;
  1610 : D1;
  1611 : D0;
  1612 : D0;
  1613 : CF;
  1614 : CE;
  1615 : CE;
  1616 : CD;
  1617 : CC;
  1618 : CB;
  1619 : CA;
  161A : CB;
  161B : CC;
  161C : CB;
  161D : B5;
  161E : 5E;
  161F : 16;
  1620 : 0C;
  1621 : 0D;
  1622 : 22;
  1623 : 58;
  1624 : 75;
  1625 : 7D;
  1626 : 7E;
  1627 : 8B;
  1628 : A7;
  1629 : A8;
  162A : 8F;
  162B : 85;
  162C : 85;
  162D : 86;
  162E : 87;
  162F : 89;
  1630 : 89;
  1631 : 89;
  1632 : 86;
  1633 : 87;
  1634 : 86;
  1635 : 86;
  1636 : 86;
  1637 : 88;
  1638 : 8B;
  1639 : 87;
  163A : 69;
  163B : 32;
  163C : 13;
  163D : 10;
  163E : 0F;
  163F : 0F;
  1640 : 0F;
  1641 : 0F;
  1642 : 10;
  1643 : 0F;
  1644 : 0D;
  1645 : 10;
  1646 : 1D;
  1647 : 24;
  1648 : 20;
  1649 : 1B;
  164A : 1D;
  164B : 1F;
  164C : 1E;
  164D : 20;
  164E : 22;
  164F : 28;
  1650 : 2A;
  1651 : 28;
  1652 : 27;
  1653 : 28;
  1654 : 21;
  1655 : 18;
  1656 : 1C;
  1657 : 26;
  1658 : 5E;
  1659 : A9;
  165A : C7;
  165B : D1;
  165C : D1;
  165D : D2;
  165E : D2;
  165F : D2;
  1660 : D2;
  1661 : D2;
  1662 : D3;
  1663 : D3;
  1664 : D3;
  1665 : D3;
  1666 : D2;
  1667 : D3;
  1668 : D3;
  1669 : D2;
  166A : CF;
  166B : D0;
  166C : D0;
  166D : CE;
  166E : CE;
  166F : CE;
  1670 : CE;
  1671 : CE;
  1672 : CD;
  1673 : CB;
  1674 : CA;
  1675 : CA;
  1676 : CB;
  1677 : CB;
  1678 : CC;
  1679 : CB;
  167A : CA;
  167B : CA;
  167C : CB;
  167D : CB;
  167E : CA;
  167F : AB;
  1680 : DA;
  1681 : DA;
  1682 : DA;
  1683 : DB;
  1684 : DA;
  1685 : DA;
  1686 : DB;
  1687 : DB;
  1688 : DA;
  1689 : D8;
  168A : D6;
  168B : D8;
  168C : D9;
  168D : DB;
  168E : DC;
  168F : DB;
  1690 : DB;
  1691 : D9;
  1692 : D6;
  1693 : D5;
  1694 : D6;
  1695 : D7;
  1696 : D8;
  1697 : D9;
  1698 : D8;
  1699 : D8;
  169A : D7;
  169B : D6;
  169C : D5;
  169D : D6;
  169E : D6;
  169F : D6;
  16A0 : D5;
  16A1 : D3;
  16A2 : D3;
  16A3 : D4;
  16A4 : D4;
  16A5 : D4;
  16A6 : D4;
  16A7 : D4;
  16A8 : D4;
  16A9 : D4;
  16AA : D4;
  16AB : D4;
  16AC : D4;
  16AD : D2;
  16AE : D1;
  16AF : D1;
  16B0 : CF;
  16B1 : CF;
  16B2 : CF;
  16B3 : CE;
  16B4 : CD;
  16B5 : CD;
  16B6 : CD;
  16B7 : CC;
  16B8 : CB;
  16B9 : CB;
  16BA : CC;
  16BB : CC;
  16BC : CB;
  16BD : B6;
  16BE : 5C;
  16BF : 16;
  16C0 : 0D;
  16C1 : 0E;
  16C2 : 21;
  16C3 : 56;
  16C4 : 75;
  16C5 : 7D;
  16C6 : 81;
  16C7 : 94;
  16C8 : AC;
  16C9 : AC;
  16CA : 9A;
  16CB : 8E;
  16CC : 87;
  16CD : 85;
  16CE : 85;
  16CF : 85;
  16D0 : 85;
  16D1 : 85;
  16D2 : 85;
  16D3 : 85;
  16D4 : 86;
  16D5 : 86;
  16D6 : 86;
  16D7 : 88;
  16D8 : 8A;
  16D9 : 83;
  16DA : 66;
  16DB : 37;
  16DC : 16;
  16DD : 10;
  16DE : 0F;
  16DF : 0F;
  16E0 : 0F;
  16E1 : 0F;
  16E2 : 10;
  16E3 : 0F;
  16E4 : 0D;
  16E5 : 10;
  16E6 : 1C;
  16E7 : 22;
  16E8 : 1E;
  16E9 : 1A;
  16EA : 1B;
  16EB : 1E;
  16EC : 1E;
  16ED : 20;
  16EE : 22;
  16EF : 25;
  16F0 : 26;
  16F1 : 27;
  16F2 : 28;
  16F3 : 27;
  16F4 : 20;
  16F5 : 1A;
  16F6 : 1C;
  16F7 : 24;
  16F8 : 58;
  16F9 : A4;
  16FA : C9;
  16FB : D1;
  16FC : D1;
  16FD : D2;
  16FE : D2;
  16FF : D3;
  1700 : D3;
  1701 : D2;
  1702 : D3;
  1703 : D3;
  1704 : D3;
  1705 : D4;
  1706 : D4;
  1707 : D3;
  1708 : D2;
  1709 : D1;
  170A : D0;
  170B : D0;
  170C : D0;
  170D : CF;
  170E : CE;
  170F : CE;
  1710 : CE;
  1711 : CD;
  1712 : CD;
  1713 : CC;
  1714 : CB;
  1715 : CB;
  1716 : CC;
  1717 : CB;
  1718 : CC;
  1719 : CB;
  171A : CB;
  171B : CC;
  171C : CB;
  171D : CB;
  171E : CA;
  171F : AC;
  1720 : DB;
  1721 : DA;
  1722 : DA;
  1723 : DA;
  1724 : DA;
  1725 : D9;
  1726 : DA;
  1727 : DB;
  1728 : DA;
  1729 : D9;
  172A : D8;
  172B : D8;
  172C : DA;
  172D : DA;
  172E : DB;
  172F : DB;
  1730 : DB;
  1731 : DA;
  1732 : D7;
  1733 : D5;
  1734 : D5;
  1735 : D7;
  1736 : D9;
  1737 : DA;
  1738 : DA;
  1739 : D8;
  173A : D6;
  173B : D6;
  173C : D6;
  173D : D5;
  173E : D2;
  173F : D1;
  1740 : D3;
  1741 : D4;
  1742 : D4;
  1743 : D4;
  1744 : D4;
  1745 : D4;
  1746 : D4;
  1747 : D4;
  1748 : D4;
  1749 : D4;
  174A : D4;
  174B : D3;
  174C : D2;
  174D : D0;
  174E : CC;
  174F : CE;
  1750 : CE;
  1751 : CE;
  1752 : CE;
  1753 : CD;
  1754 : CC;
  1755 : CD;
  1756 : CD;
  1757 : CC;
  1758 : CC;
  1759 : CB;
  175A : CB;
  175B : CC;
  175C : CB;
  175D : B6;
  175E : 5A;
  175F : 14;
  1760 : 0C;
  1761 : 0D;
  1762 : 20;
  1763 : 55;
  1764 : 74;
  1765 : 7C;
  1766 : 84;
  1767 : 99;
  1768 : AF;
  1769 : B0;
  176A : A0;
  176B : 8F;
  176C : 88;
  176D : 83;
  176E : 83;
  176F : 81;
  1770 : 81;
  1771 : 81;
  1772 : 83;
  1773 : 85;
  1774 : 85;
  1775 : 86;
  1776 : 86;
  1777 : 87;
  1778 : 88;
  1779 : 7C;
  177A : 63;
  177B : 3B;
  177C : 17;
  177D : 0F;
  177E : 0E;
  177F : 0F;
  1780 : 10;
  1781 : 10;
  1782 : 10;
[...]
  456C : B9;
  456D : BA;
  456E : B9;
  456F : B9;
  4570 : BB;
  4571 : BA;
  4572 : BA;
  4573 : BB;
  4574 : BA;
  4575 : B9;
  4576 : B7;
  4577 : B8;
  4578 : B8;
  4579 : B8;
  457A : B8;
  457B : B8;
  457C : B8;
  457D : B7;
  457E : B6;
  457F : B4;
  4580 : B5;
  4581 : B5;
  4582 : B4;
  4583 : B3;
  4584 : B3;
  4585 : B1;
  4586 : B2;
  4587 : B2;
  4588 : B1;
  4589 : AF;
  458A : AD;
  458B : AC;
  458C : AC;
  458D : AA;
  458E : AA;
  458F : A9;
  4590 : A9;
  4591 : AA;
  4592 : AB;
  4593 : AA;
  4594 : AA;
  4595 : AA;
  4596 : AA;
  4597 : A9;
  4598 : A6;
  4599 : A5;
  459A : A0;
  459B : 91;
  459C : 7D;
  459D : 79;
  459E : 7A;
  459F : 7A;
  45A0 : 7C;
  45A1 : 7E;
  45A2 : 79;
  45A3 : 6F;
  45A4 : 72;
  45A5 : 78;
  45A6 : 84;
  45A7 : 92;
  45A8 : 8D;
  45A9 : 7D;
  45AA : 85;
  45AB : 97;
  45AC : 8F;
  45AD : 8F;
  45AE : 8B;
  45AF : 6E;
  45B0 : 63;
  45B1 : 69;
  45B2 : 65;
  45B3 : 64;
  45B4 : 73;
  45B5 : 85;
  45B6 : 8A;
  45B7 : 87;
  45B8 : 90;
  45B9 : 9B;
  45BA : 9F;
  45BB : 9F;
  45BC : 9A;
  45BD : 8D;
  45BE : 8D;
  45BF : 93;
  45C0 : 9D;
  45C1 : A9;
  45C2 : AC;
  45C3 : A3;
  45C4 : 7A;
  45C5 : 51;
  45C6 : 4A;
  45C7 : 52;
  45C8 : 5B;
  45C9 : 6C;
  45CA : 80;
  45CB : 7D;
  45CC : 81;
  45CD : 82;
  45CE : 7A;
  45CF : 75;
  45D0 : 77;
  45D1 : 8D;
  45D2 : A8;
  45D3 : AC;
  45D4 : AB;
  45D5 : AC;
  45D6 : AC;
  45D7 : AD;
  45D8 : AE;
  45D9 : AD;
  45DA : AB;
  45DB : AC;
  45DC : AC;
  45DD : AD;
  45DE : AC;
  45DF : AD;
  45E0 : AE;
  45E1 : AD;
  45E2 : AD;
  45E3 : AD;
  45E4 : AE;
  45E5 : AE;
  45E6 : AE;
  45E7 : AE;
  45E8 : AF;
  45E9 : AE;
  45EA : AD;
  45EB : AD;
  45EC : AD;
  45ED : AD;
  45EE : AC;
  45EF : AB;
  45F0 : AB;
  45F1 : AC;
  45F2 : AC;
  45F3 : AB;
  45F4 : AA;
  45F5 : AA;
  45F6 : AA;
  45F7 : AB;
  45F8 : AB;
  45F9 : AB;
  45FA : AA;
  45FB : A9;
  45FC : A9;
  45FD : A9;
  45FE : A7;
  45FF : 9A;
  4600 : BB;
  4601 : BB;
  4602 : BB;
  4603 : B9;
  4604 : B8;
  4605 : B7;
  4606 : B7;
  4607 : B7;
  4608 : B7;
  4609 : B7;
  460A : B8;
  460B : B8;
  460C : B7;
  460D : B8;
  460E : B7;
  460F : B8;
  4610 : B8;
  4611 : B9;
  4612 : B9;
  4613 : BA;
  4614 : B9;
  4615 : B8;
  4616 : B7;
  4617 : B8;
  4618 : B7;
  4619 : B7;
  461A : B7;
  461B : B8;
  461C : B7;
  461D : B4;
  461E : B4;
  461F : B5;
  4620 : B5;
  4621 : B4;
  4622 : B3;
  4623 : B2;
  4624 : B1;
  4625 : B0;
  4626 : AF;
  4627 : AF;
  4628 : AD;
  4629 : AD;
  462A : AC;
  462B : AC;
  462C : AB;
  462D : A8;
  462E : A7;
  462F : A6;
  4630 : A8;
  4631 : A8;
  4632 : A9;
  4633 : AA;
  4634 : AA;
  4635 : AB;
  4636 : AA;
  4637 : A8;
  4638 : A5;
  4639 : A4;
  463A : A1;
  463B : 92;
  463C : 7E;
  463D : 78;
  463E : 78;
  463F : 80;
  4640 : 7F;
  4641 : 6D;
  4642 : 60;
  4643 : 6F;
  4644 : 7A;
  4645 : 7F;
  4646 : 8A;
  4647 : 8E;
  4648 : 7B;
  4649 : 6D;
  464A : 7E;
  464B : 93;
  464C : 8B;
  464D : 87;
  464E : 7E;
  464F : 76;
  4650 : 74;
  4651 : 7F;
  4652 : 70;
  4653 : 64;
  4654 : 7B;
  4655 : 8D;
  4656 : 83;
  4657 : 87;
  4658 : 86;
  4659 : 82;
  465A : 8D;
  465B : 9A;
  465C : 97;
  465D : 88;
  465E : 89;
  465F : 94;
  4660 : A1;
  4661 : A7;
  4662 : A1;
  4663 : 8D;
  4664 : 67;
  4665 : 56;
  4666 : 4D;
  4667 : 5D;
  4668 : 72;
  4669 : 84;
  466A : 8C;
  466B : 7D;
  466C : 84;
  466D : 83;
  466E : 7A;
  466F : 88;
  4670 : 98;
  4671 : A3;
  4672 : AB;
  4673 : AC;
  4674 : AC;
  4675 : AC;
  4676 : AC;
  4677 : AC;
  4678 : AE;
  4679 : AD;
  467A : AB;
  467B : AB;
  467C : AB;
  467D : AB;
  467E : AC;
  467F : AC;
  4680 : AC;
  4681 : AC;
  4682 : AC;
  4683 : AC;
  4684 : AD;
  4685 : AD;
  4686 : AD;
  4687 : AD;
  4688 : AD;
  4689 : AD;
  468A : AD;
  468B : AD;
  468C : AD;
  468D : AC;
  468E : AA;
  468F : AA;
  4690 : AA;
  4691 : AA;
  4692 : AA;
  4693 : AA;
  4694 : A9;
  4695 : A9;
  4696 : AA;
  4697 : A8;
  4698 : A9;
  4699 : A8;
  469A : A6;
  469B : A5;
  469C : A6;
  469D : A7;
  469E : A7;
  469F : 9B;
  46A0 : BA;
  46A1 : BB;
  46A2 : BA;
  46A3 : B7;
  46A4 : B6;
  46A5 : B5;
  46A6 : B5;
  46A7 : B7;
  46A8 : B8;
  46A9 : B8;
  46AA : B8;
  46AB : B8;
  46AC : B8;
  46AD : B8;
  46AE : B8;
  46AF : B7;
  46B0 : B7;
  46B1 : B7;
  46B2 : B8;
  46B3 : B9;
  46B4 : B9;
  46B5 : B9;
  46B6 : B8;
  46B7 : B9;
  46B8 : B8;
  46B9 : B6;
  46BA : B6;
  46BB : B7;
  46BC : B6;
  46BD : B5;
  46BE : B6;
  46BF : B5;
  46C0 : B5;
  46C1 : B4;
  46C2 : B2;
  46C3 : B1;
  46C4 : B1;
  46C5 : B1;
  46C6 : B0;
  46C7 : AE;
  46C8 : AC;
  46C9 : AB;
  46CA : AB;
  46CB : AB;
  46CC : A9;
  46CD : A7;
  46CE : A6;
  46CF : A4;
  46D0 : A6;
  46D1 : A7;
  46D2 : A9;
  46D3 : A9;
  46D4 : AA;
  46D5 : AA;
  46D6 : A9;
  46D7 : A7;
  46D8 : A4;
  46D9 : A1;
  46DA : A0;
  46DB : 91;
  46DC : 7F;
  46DD : 79;
  46DE : 7E;
  46DF : 8F;
  46E0 : 8F;
  46E1 : 7E;
  46E2 : 79;
  46E3 : 7E;
  46E4 : 80;
  46E5 : 82;
  46E6 : 85;
  46E7 : 84;
  46E8 : 77;
  46E9 : 7D;
  46EA : 82;
  46EB : 88;
  46EC : 8C;
  46ED : 83;
  46EE : 73;
  46EF : 7B;
  46F0 : 8D;
  46F1 : 90;
  46F2 : 85;
  46F3 : 7D;
  46F4 : 8E;
  46F5 : 98;
  46F6 : 89;
  46F7 : 7F;
  46F8 : 6E;
  46F9 : 72;
  46FA : 8C;
  46FB : 99;
  46FC : 90;
  46FD : 88;
  46FE : 8A;
  46FF : 95;
  4700 : 9D;
  4701 : 9B;
  4702 : 90;
  4703 : 7C;
  4704 : 59;
  4705 : 4F;
  4706 : 52;
  4707 : 70;
  4708 : 89;
  4709 : 8A;
  470A : 81;
  470B : 79;
  470C : 81;
  470D : 7C;
  470E : 7A;
  470F : 8E;
  4710 : A4;
  4711 : AA;
  4712 : AC;
  4713 : AD;
  4714 : AD;
  4715 : AD;
  4716 : AC;
  4717 : AD;
  4718 : AE;
  4719 : AC;
  471A : AB;
  471B : AA;
  471C : AA;
  471D : AB;
  471E : AC;
  471F : AC;
  4720 : AC;
  4721 : AC;
  4722 : AC;
  4723 : AC;
  4724 : AC;
  4725 : AC;
  4726 : AC;
  4727 : AC;
  4728 : AC;
  4729 : AD;
  472A : AD;
  472B : AD;
  472C : AC;
  472D : AC;
  472E : A9;
  472F : A9;
  4730 : A9;
  4731 : AA;
  4732 : AA;
  4733 : A9;
  4734 : A9;
  4735 : A8;
  4736 : A8;
  4737 : A8;
  4738 : A7;
  4739 : A6;
  473A : A4;
  473B : A4;
  473C : A5;
  473D : A6;
  473E : A5;
  473F : 9A;
  4740 : B5;
  4741 : B6;
  4742 : B8;
  4743 : B7;
  4744 : B5;
  4745 : B4;
  4746 : B5;
  4747 : B7;
  4748 : B8;
  4749 : B8;
  474A : B8;
  474B : B8;
  474C : B8;
  474D : B8;
  474E : B8;
  474F : B8;
  4750 : B7;
  4751 : B7;
  4752 : B8;
  4753 : BA;
  4754 : BA;
  4755 : BA;
  4756 : BA;
  4757 : BA;
  4758 : B8;
  4759 : B5;
  475A : B4;
  475B : B4;
  475C : B5;
  475D : B6;
  475E : B5;
  475F : B4;
  4760 : B4;
  4761 : B2;
  4762 : AE;
  4763 : AE;
  4764 : AF;
  4765 : AF;
  4766 : AE;
  4767 : AD;
  4768 : AC;
  4769 : AB;
  476A : AB;
  476B : AB;
  476C : A9;
  476D : A6;
  476E : A4;
  476F : A4;
  4770 : A6;
  4771 : A6;
  4772 : A6;
  4773 : A8;
  4774 : A9;
  4775 : A8;
  4776 : A8;
  4777 : A7;
  4778 : A2;
  4779 : 9F;
  477A : 9D;
  477B : 90;
  477C : 7E;
  477D : 7A;
  477E : 84;
  477F : 96;
  4780 : 97;
  4781 : 92;
  4782 : 8F;
  4783 : 80;
  4784 : 7B;
  4785 : 7C;
  4786 : 7C;
  4787 : 7C;
  4788 : 7D;
  4789 : 83;
  478A : 82;
  478B : 85;
  478C : 85;
  478D : 77;
  478E : 6A;
  478F : 69;
  4790 : 87;
  4791 : 7D;
  4792 : 7B;
  4793 : 85;
  4794 : 8D;
  4795 : 93;
  4796 : 94;
  4797 : 7E;
  4798 : 6B;
  4799 : 7C;
  479A : 87;
  479B : 7F;
  479C : 7B;
  479D : 89;
  479E : 8C;
  479F : 96;
  47A0 : 99;
  47A1 : 8F;
  47A2 : 84;
  47A3 : 73;
  47A4 : 58;
  47A5 : 52;
  47A6 : 5C;
  47A7 : 78;
  47A8 : 88;
  47A9 : 7F;
  47AA : 73;
  47AB : 74;
  47AC : 78;
  47AD : 75;
  47AE : 7A;
  47AF : 8D;
  47B0 : A3;
  47B1 : AB;
  47B2 : A9;
  47B3 : AA;
  47B4 : AB;
  47B5 : AB;
  47B6 : AB;
  47B7 : AC;
  47B8 : AC;
  47B9 : AB;
  47BA : AA;
  47BB : AA;
  47BC : AB;
  47BD : AA;
  47BE : A9;
  47BF : AB;
  47C0 : AC;
  47C1 : AC;
  47C2 : AC;
  47C3 : AC;
  47C4 : AC;
  47C5 : AC;
  47C6 : AC;
  47C7 : AC;
  47C8 : AC;
  47C9 : AC;
  47CA : AC;
  47CB : AB;
  47CC : AC;
  47CD : AB;
  47CE : A9;
  47CF : A8;
  47D0 : A9;
  47D1 : A9;
  47D2 : A7;
  47D3 : A5;
  47D4 : A5;
  47D5 : A7;
  47D6 : A6;
  47D7 : A6;
  47D8 : A6;
  47D9 : A6;
  47DA : A5;
  47DB : A5;
  47DC : A5;
  47DD : A4;
  47DE : A3;
  47DF : 9A;
  47E0 : B6;
  47E1 : B7;
  47E2 : B7;
  47E3 : B6;
  47E4 : B5;
  47E5 : B5;
  47E6 : B6;
  47E7 : B8;
  47E8 : B8;
  47E9 : B8;
  47EA : B8;
  47EB : B8;
  47EC : B8;
  47ED : B8;
  47EE : B8;
  47EF : B8;
  47F0 : B8;
  47F1 : B8;
  47F2 : B8;
  47F3 : BA;
  47F4 : BA;
  47F5 : BA;
  47F6 : BA;
  47F7 : BA;
  47F8 : B9;
  47F9 : B5;
  47FA : B3;
  47FB : B3;
  47FC : B5;
  47FD : B4;
  47FE : B3;
  47FF : B2;
  4800 : B2;
  4801 : AF;
  4802 : AC;
  4803 : AC;
  4804 : AC;
  4805 : AC;
  4806 : AC;
  4807 : AB;
  4808 : AC;
  4809 : AC;
  480A : AC;
  480B : AB;
  480C : A9;
  480D : A6;
  480E : A5;
  480F : A4;
  4810 : A5;
  4811 : A5;
  4812 : A5;
  4813 : A5;
  4814 : A6;
  4815 : A8;
  4816 : A7;
  4817 : A7;
  4818 : A0;
  4819 : 9B;
  481A : 99;
  481B : 8E;
  481C : 7C;
  481D : 78;
  481E : 7F;
  481F : 89;
  4820 : 87;
  4821 : 8A;
  4822 : 8A;
  4823 : 7E;
  4824 : 78;
  4825 : 7B;
  4826 : 7C;
  4827 : 72;
  4828 : 74;
  4829 : 79;
  482A : 79;
  482B : 7D;
  482C : 79;
  482D : 73;
  482E : 6C;
  482F : 65;
  4830 : 6E;
  4831 : 65;
  4832 : 6B;
  4833 : 83;
  4834 : 95;
  4835 : 8A;
  4836 : 7D;
  4837 : 6A;
  4838 : 70;
  4839 : 87;
  483A : 80;
  483B : 75;
  483C : 7F;
  483D : 89;
  483E : 91;
  483F : A2;
  4840 : 9D;
  4841 : 91;
  4842 : 80;
  4843 : 65;
  4844 : 5E;
  4845 : 62;
  4846 : 6C;
  4847 : 7D;
  4848 : 82;
  4849 : 76;
  484A : 6F;
  484B : 71;
  484C : 78;
  484D : 7F;
  484E : 81;
  484F : 86;
  4850 : 96;
  4851 : A2;
  4852 : A4;
  4853 : A5;
  4854 : A8;
  4855 : A9;
  4856 : A8;
  4857 : A9;
  4858 : AA;
  4859 : AA;
  485A : A9;
  485B : AA;
  485C : AA;
  485D : A9;
  485E : A9;
  485F : AA;
  4860 : AB;
  4861 : AC;
  4862 : AC;
  4863 : AC;
  4864 : AC;
  4865 : AC;
  4866 : AC;
  4867 : AC;
  4868 : AC;
  4869 : AB;
  486A : AA;
  486B : AB;
  486C : AA;
  486D : AA;
  486E : A9;
  486F : A9;
  4870 : A9;
  4871 : A9;
  4872 : A6;
  4873 : A4;
  4874 : A4;
  4875 : A5;
  4876 : A5;
  4877 : A5;
  4878 : A6;
  4879 : A6;
  487A : A5;
  487B : A5;
  487C : A5;
  487D : A5;
  487E : A4;
  487F : 9B;
  4880 : B7;
  4881 : B6;
  4882 : B6;
  4883 : B6;
  4884 : B5;
  4885 : B5;
  4886 : B6;
  4887 : B8;
  4888 : B8;
  4889 : B8;
  488A : B8;
  488B : B8;
  488C : B8;
  488D : B8;
  488E : B8;
  488F : B8;
  4890 : B8;
  4891 : B8;
  4892 : B8;
  4893 : B8;
  4894 : B8;
  4895 : B9;
  4896 : B8;
  4897 : B8;
  4898 : B8;
  4899 : B5;
  489A : B2;
  489B : B3;
  489C : B2;
  489D : B1;
  489E : B1;
  489F : B1;
  48A0 : B0;
  48A1 : AE;
  48A2 : AC;
  48A3 : AC;
  48A4 : AC;
  48A5 : AC;
  48A6 : AC;
  48A7 : AC;
  48A8 : AC;
  48A9 : AC;
  48AA : AC;
  48AB : AC;
  48AC : A8;
  48AD : A6;
  48AE : A5;
  48AF : A4;
  48B0 : A5;
  48B1 : A5;
  48B2 : A5;
  48B3 : A5;
  48B4 : A6;
  48B5 : A7;
  48B6 : A7;
  48B7 : A6;
  48B8 : A0;
  48B9 : 9B;
  48BA : 99;
  48BB : 8D;
  48BC : 7A;
  48BD : 71;
  48BE : 6E;
  48BF : 78;
  48C0 : 7C;
  48C1 : 7C;
  48C2 : 7E;
  48C3 : 7C;
  48C4 : 80;
  48C5 : 82;
  48C6 : 71;
  48C7 : 5E;
  48C8 : 61;
  48C9 : 71;
  48CA : 78;
  48CB : 76;
  48CC : 76;
  48CD : 7B;
  48CE : 7B;
  48CF : 6D;
  48D0 : 68;
  48D1 : 6E;
  48D2 : 7B;
  48D3 : 84;
  48D4 : 87;
  48D5 : 77;
  48D6 : 71;
  48D7 : 65;
  48D8 : 70;
  48D9 : 7C;
  48DA : 7E;
  48DB : 8E;
  48DC : 98;
  48DD : 87;
  48DE : 94;
  48DF : A7;
  48E0 : 9F;
  48E1 : 94;
  48E2 : 7C;
  48E3 : 59;
  48E4 : 5D;
  48E5 : 71;
  48E6 : 77;
  48E7 : 77;
  48E8 : 76;
  48E9 : 79;
  48EA : 78;
  48EB : 75;
  48EC : 7A;
  48ED : 81;
  48EE : 84;
  48EF : 83;
  48F0 : 87;
  48F1 : 94;
  48F2 : A0;
  48F3 : A5;
  48F4 : A7;
  48F5 : A8;
  48F6 : A7;
  48F7 : A8;
  48F8 : AA;
  48F9 : A9;
  48FA : A9;
  48FB : AA;
  48FC : A9;
  48FD : A9;
  48FE : A9;
  48FF : AA;
  4900 : AB;
  4901 : AC;
  4902 : AC;
  4903 : AC;
  4904 : AC;
  4905 : AC;
  4906 : AB;
  4907 : AC;
  4908 : AC;
  4909 : AB;
  490A : AA;
  490B : AA;
  490C : AA;
  490D : AA;
  490E : A8;
  490F : A8;
  4910 : A8;
  4911 : A8;
  4912 : A6;
  4913 : A5;
  4914 : A5;
  4915 : A5;
  4916 : A5;
  4917 : A6;
  4918 : A6;
  4919 : A6;
  491A : A4;
  491B : A4;
  491C : A4;
  491D : A5;
  491E : A5;
  491F : 9A;
  4920 : B7;
  4921 : B7;
  4922 : B6;
  4923 : B5;
  4924 : B4;
  4925 : B6;
  4926 : B7;
  4927 : B8;
  4928 : B8;
  4929 : B7;
  492A : B7;
  492B : B8;
  492C : B7;
  492D : B8;
  492E : B8;
  492F : B8;
  4930 : B8;
  4931 : B8;
  4932 : B7;
  4933 : B6;
  4934 : B5;
  4935 : B6;
  4936 : B5;
  4937 : B5;
  4938 : B5;
  4939 : B5;
  493A : B3;
  493B : B0;
  493C : AF;
  493D : AE;
  493E : AF;
  493F : AF;
  4940 : AD;
  4941 : AC;
  4942 : AC;
  4943 : AB;
  4944 : AB;
  4945 : AC;
  4946 : AC;
  4947 : AC;
  4948 : AC;
  4949 : AC;
  494A : AC;
  494B : AC;
  494C : A9;
  494D : A6;
  494E : A5;
  494F : A5;
  4950 : A5;
  4951 : A5;
  4952 : A4;
  4953 : A5;
  4954 : A5;
  4955 : A6;
  4956 : A6;
  4957 : A6;
  4958 : A0;
  4959 : 9B;
  495A : 9A;
  495B : 8E;
  495C : 7C;
  495D : 6F;
  495E : 63;
  495F : 72;
  4960 : 78;
  4961 : 5F;
  4962 : 50;
  4963 : 57;
  4964 : 72;
  4965 : 77;
  4966 : 69;
  4967 : 67;
  4968 : 69;
  4969 : 81;
  496A : 83;
  496B : 79;
  496C : 8B;
  496D : 97;
  496E : 9E;
  496F : 94;
  4970 : 83;
  4971 : 79;
  4972 : 7A;
  4973 : 82;
  4974 : 83;
  4975 : 80;
  4976 : 77;
  4977 : 6C;
  4978 : 72;
  4979 : 71;
  497A : 70;
  497B : 8A;
  497C : 92;
  497D : 80;
  497E : 91;
  497F : 8D;
  4980 : 8A;
  4981 : 8C;
  4982 : 6F;
  4983 : 51;
  4984 : 5B;
  4985 : 6B;
  4986 : 69;
  4987 : 60;
  4988 : 69;
  4989 : 78;
  498A : 7B;
  498B : 79;
  498C : 7B;
  498D : 80;
  498E : 82;
  498F : 82;
  4990 : 84;
  4991 : 8E;
  4992 : 99;
  4993 : A4;
  4994 : A7;
  4995 : A7;
  4996 : A7;
  4997 : A8;
  4998 : AA;
  4999 : AA;
  499A : AA;
  499B : AA;
  499C : AA;
  499D : AA;
  499E : AA;
  499F : AA;
  49A0 : AB;
  49A1 : AC;
  49A2 : AC;
  49A3 : AC;
  49A4 : AC;
  49A5 : AC;
  49A6 : AC;
  49A7 : AC;
  49A8 : AC;
  49A9 : AA;
  49AA : A9;
  49AB : A9;
  49AC : AA;
  49AD : A9;
  49AE : A6;
  49AF : A5;
  49B0 : A5;
  49B1 : A5;
  49B2 : A5;
  49B3 : A6;
  49B4 : A7;
  49B5 : A7;
  49B6 : A6;
  49B7 : A6;
  49B8 : A4;
  49B9 : A5;
  49BA : A4;
  49BB : A4;
  49BC : A4;
  49BD : A5;
  49BE : A5;
  49BF : 9A;
  49C0 : B6;
  49C1 : B6;
  49C2 : B6;
  49C3 : B5;
  49C4 : B5;
  49C5 : B7;
  49C6 : B6;
  49C7 : B6;
  49C8 : B6;
  49C9 : B6;
  49CA : B7;
  49CB : B8;
  49CC : B7;
  49CD : B8;
  49CE : B8;
  49CF : B8;
  49D0 : B8;
  49D1 : B8;
  49D2 : B7;
  49D3 : B5;
  49D4 : B5;
  49D5 : B5;
  49D6 : B5;
  49D7 : B4;
  49D8 : B2;
  49D9 : B3;
  49DA : B0;
  49DB : AD;
  49DC : AC;
  49DD : AC;
  49DE : AD;
  49DF : AE;
  49E0 : AD;
  49E1 : AC;
  49E2 : AC;
  49E3 : AC;
  49E4 : AC;
  49E5 : AC;
  49E6 : AC;
  49E7 : AC;
  49E8 : AB;
  49E9 : AB;
  49EA : AA;
  49EB : AA;
  49EC : A9;
  49ED : A8;
  49EE : A7;
  49EF : A6;
  49F0 : A5;
  49F1 : A5;
  49F2 : A5;
  49F3 : A5;
  49F4 : A4;
  49F5 : A5;
  49F6 : A6;
  49F7 : A6;
  49F8 : A1;
  49F9 : 9E;
  49FA : 9B;
  49FB : 8E;
  49FC : 7B;
  49FD : 73;
  49FE : 69;
  49FF : 73;
  4A00 : 82;
  4A01 : 67;
  4A02 : 4C;
  4A03 : 4E;
  4A04 : 69;
  4A05 : 65;
  4A06 : 61;
  4A07 : 6E;
  4A08 : 74;
  4A09 : 7A;
  4A0A : 83;
  4A0B : 88;
  4A0C : 9A;
  4A0D : 9E;
  4A0E : 9A;
  4A0F : 9B;
  4A10 : 95;
  4A11 : 7D;
  4A12 : 79;
  4A13 : 77;
  4A14 : 6D;
  4A15 : 77;
  4A16 : 76;
  4A17 : 6C;
  4A18 : 76;
  4A19 : 75;
  4A1A : 78;
  4A1B : 88;
  4A1C : 80;
  4A1D : 82;
  4A1E : 8F;
  4A1F : 7B;
  4A20 : 7C;
  4A21 : 79;
  4A22 : 5A;
  4A23 : 4D;
  4A24 : 5E;
  4A25 : 67;
  4A26 : 64;
  4A27 : 62;
  4A28 : 6C;
  4A29 : 78;
  4A2A : 7C;
  4A2B : 7B;
  4A2C : 7D;
  4A2D : 80;
  4A2E : 81;
  4A2F : 81;
  4A30 : 84;
  4A31 : 89;
  4A32 : 91;
  4A33 : 9F;
  4A34 : A5;
  4A35 : A6;
  4A36 : A6;
  4A37 : A8;
  4A38 : A9;
  4A39 : A9;
  4A3A : A9;
  4A3B : A9;
  4A3C : A9;
  4A3D : A9;
  4A3E : A9;
  4A3F : A8;
  4A40 : AA;
  4A41 : AC;
  4A42 : AC;
  4A43 : AC;
  4A44 : AC;
  4A45 : AC;
  4A46 : AB;
  4A47 : AC;
  4A48 : AA;
  4A49 : A7;
  4A4A : A7;
  4A4B : A7;
  4A4C : A8;
  4A4D : A6;
  4A4E : A5;
  4A4F : A5;
  4A50 : A4;
  4A51 : A4;
  4A52 : A4;
  4A53 : A5;
  4A54 : A7;
  4A55 : A7;
  4A56 : A5;
  4A57 : A4;
  4A58 : A4;
  4A59 : A5;
  4A5A : A5;
  4A5B : A4;
  4A5C : A4;
  4A5D : A5;
  4A5E : A5;
  4A5F : 98;
  4A60 : B6;
  4A61 : B6;
  4A62 : B6;
  4A63 : B5;
  4A64 : B5;
  4A65 : B6;
  4A66 : B5;
  4A67 : B5;
  4A68 : B5;
  4A69 : B5;
  4A6A : B6;
  4A6B : B7;
  4A6C : B7;
  4A6D : B7;
  4A6E : B7;
  4A6F : B6;
  4A70 : B6;
  4A71 : B5;
  4A72 : B5;
  4A73 : B5;
  4A74 : B5;
  4A75 : B4;
  4A76 : B3;
  4A77 : B3;
  4A78 : B2;
  4A79 : B1;
  4A7A : AD;
  4A7B : AC;
  4A7C : AD;
  4A7D : AC;
  4A7E : AC;
  4A7F : AC;
  4A80 : AD;
  4A81 : AC;
  4A82 : AC;
  4A83 : AC;
  4A84 : AC;
  4A85 : AC;
  4A86 : AC;
  4A87 : AC;
  4A88 : AB;
  4A89 : A8;
  4A8A : A7;
  4A8B : A7;
  4A8C : A8;
  4A8D : A9;
  4A8E : A7;
  4A8F : A6;
  4A90 : A4;
  4A91 : A4;
  4A92 : A4;
  4A93 : A4;
  4A94 : A3;
  4A95 : A4;
  4A96 : A6;
  4A97 : A5;
  4A98 : A0;
  4A99 : 9E;
  4A9A : 9B;
  4A9B : 8C;
  4A9C : 77;
  4A9D : 75;
  4A9E : 75;
  4A9F : 78;
  4AA0 : 8B;
  4AA1 : 86;
  4AA2 : 71;
  4AA3 : 6D;
  4AA4 : 71;
  4AA5 : 56;
  4AA6 : 51;
  4AA7 : 66;
  4AA8 : 6F;
  4AA9 : 67;
  4AAA : 79;
  4AAB : 8C;
  4AAC : 8E;
  4AAD : 86;
  4AAE : 7A;
  4AAF : 8A;
  4AB0 : 90;
  4AB1 : 79;
  4AB2 : 7F;
  4AB3 : 78;
  4AB4 : 58;
  4AB5 : 59;
  4AB6 : 65;
  4AB7 : 74;
  4AB8 : 79;
  4AB9 : 6D;
  4ABA : 76;
  4ABB : 7C;
  4ABC : 73;
  4ABD : 7E;
  4ABE : 8A;
  4ABF : 77;
  4AC0 : 76;
  4AC1 : 64;
  4AC2 : 45;
  4AC3 : 43;
  4AC4 : 58;
  4AC5 : 6B;
  4AC6 : 6F;
  4AC7 : 70;
  4AC8 : 76;
  4AC9 : 7A;
  4ACA : 7B;
  4ACB : 7B;
  4ACC : 7F;
  4ACD : 81;
  4ACE : 81;
  4ACF : 83;
  4AD0 : 85;
  4AD1 : 87;
  4AD2 : 8C;
  4AD3 : 9A;
  4AD4 : A5;
  4AD5 : A6;
  4AD6 : A6;
  4AD7 : A6;
  4AD8 : A7;
  4AD9 : A7;
  4ADA : A6;
  4ADB : A6;
  4ADC : A6;
  4ADD : A6;
  4ADE : A6;
  4ADF : A7;
  4AE0 : A9;
  4AE1 : AB;
  4AE2 : AA;
  4AE3 : AA;
  4AE4 : AB;
  4AE5 : AB;
  4AE6 : AA;
  4AE7 : AB;
  4AE8 : A8;
  4AE9 : A4;
  4AEA : A5;
  4AEB : A5;
  4AEC : A5;
  4AED : A5;
  4AEE : A5;
  4AEF : A5;
  4AF0 : A4;
  4AF1 : A4;
  4AF2 : A4;
  4AF3 : A5;
  4AF4 : A6;
  4AF5 : A6;
  4AF6 : A5;
  4AF7 : A4;
  4AF8 : A4;
  4AF9 : A5;
  4AFA : A5;
  4AFB : A5;
  4AFC : A4;
  4AFD : A5;
  4AFE : A4;
  4AFF : 96;
END;
